data_structure

_audit_creation_method RASPA-1.0
_audit_creation_date 2023-5-19
_audit_author_name 'Poobodin Mano'

_cell_length_a    49.9097
_cell_length_b    48.9489
_cell_length_c    48.6769
_cell_angle_alpha 90
_cell_angle_beta  90
_cell_angle_gamma 90
_cell_volume      118919

_symmetry_cell_setting          triclinic
_symmetry_space_group_name_Hall 'P 1'
_symmetry_space_group_name_H-M  'P 1'
_symmetry_Int_Tables_number     1

_symmetry_equiv_pos_as_xyz 'x,y,z'

loop_
_atom_site_label
_atom_site_type_symbol
_atom_site_fract_x
_atom_site_fract_y
_atom_site_fract_z
_atom_site_charge
C1       C      0.024370000000     0.455340000000     0.063510000000     0.394317   
C2       C      0.034280000000     0.053770000000     0.464490000000     0.39389    
C3       C      0.027910000000     0.456060000000     0.459790000000     0.391945   
C4       C      0.023010000000     0.059430000000     0.063700000000     0.394063   
C5       C      0.452590000000     0.050270000000     0.053220000000     0.383446   
C6       C      0.460530000000     0.459170000000     0.462040000000     0.387411   
C7       C      0.453920000000     0.462630000000     0.054390000000     0.38553    
C8       C      0.456740000000     0.052030000000     0.464550000000     0.384504   
C9       C      0.288740000000     0.299520000000     0.213420000000     0.385397   
C10      C      0.285920000000     0.210120000000     0.303250000000     0.384722   
C11      C      0.282140000000     0.302980000000     0.305770000000     0.387503   
C12      C      0.290080000000     0.211880000000     0.214590000000     0.38363    
C13      C      0.219660000000     0.202720000000     0.204100000000     0.394167   
C14      C      0.214760000000     0.306090000000     0.308020000000     0.39223    
C15      C      0.218290000000     0.306810000000     0.204290000000     0.394462   
C16      C      0.208390000000     0.208380000000     0.303320000000     0.394298   
C17      C      0.070220000000     0.113840000000     0.082600000000    -0.0293925  
C18      C      0.172440000000     0.148310000000     0.185200000000    -0.0293861  
C19      C      0.198990000000     0.194300000000     0.158620000000    -0.00856332 
C20      C      0.200350000000     0.157100000000     0.194650000000    -0.00850305 
C21      C      0.146560000000     0.122900000000     0.124490000000    -0.0540828  
C22      C      0.096100000000     0.139250000000     0.143310000000    -0.0541036  
C23      C      0.144690000000     0.142950000000     0.144920000000     0.0613852  
C24      C      0.171140000000     0.184060000000     0.150470000000    -0.0293983  
C25      C      0.097980000000     0.119200000000     0.122890000000     0.0614132  
C26      C      0.071520000000     0.078090000000     0.117340000000    -0.0294198  
C27      C      0.123460000000     0.111060000000     0.113510000000    -0.0564405  
C28      C      0.043670000000     0.067850000000     0.109180000000    -0.00850533 
C29      C      0.042310000000     0.105050000000     0.073160000000    -0.00856487 
C30      C      0.119210000000     0.151090000000     0.154300000000    -0.0563878  
C31      C      0.077190000000     0.111160000000     0.441230000000    -0.0294262  
C32      C      0.165470000000     0.150990000000     0.326570000000    -0.0294058  
C33      C      0.174180000000     0.208350000000     0.339940000000    -0.00850401 
C34      C      0.175600000000     0.170510000000     0.304300000000    -0.00841881 
C35      C      0.149360000000     0.131240000000     0.383880000000    -0.0563931  
C36      C      0.093300000000     0.130910000000     0.383930000000    -0.0563513  
C37      C      0.135240000000     0.148020000000     0.365360000000     0.0613727  
C38      C      0.164350000000     0.187180000000     0.360660000000    -0.0291796  
C39      C      0.107430000000     0.114130000000     0.402440000000     0.061366   
C40      C      0.078310000000     0.074970000000     0.407150000000    -0.0292652  
C41      C      0.135480000000     0.114460000000     0.402220000000    -0.0540804  
C42      C      0.068480000000     0.053800000000     0.427870000000    -0.00839561 
C43      C      0.067060000000     0.091640000000     0.463510000000    -0.00841743 
C44      C      0.107180000000     0.147690000000     0.365590000000    -0.0540536  
C45      C      0.073730000000     0.436120000000     0.116710000000    -0.0294414  
C46      C      0.168930000000     0.326030000000     0.151100000000    -0.0295975  
C47      C      0.199280000000     0.352470000000     0.194790000000    -0.00850788 
C48      C      0.196410000000     0.314720000000     0.159320000000    -0.00852754 
C49      C      0.146880000000     0.388010000000     0.124400000000    -0.0540453  
C50      C      0.095780000000     0.374140000000     0.143410000000    -0.054058   
C51      C      0.144160000000     0.368140000000     0.144910000000     0.0612875  
C52      C      0.171660000000     0.362080000000     0.185330000000    -0.0292632  
C53      C      0.098510000000     0.394010000000     0.122890000000     0.0613071  
C54      C      0.071010000000     0.400070000000     0.082480000000    -0.0292313  
C55      C      0.124310000000     0.400880000000     0.113410000000    -0.0563805  
C56      C      0.043390000000     0.409680000000     0.073020000000    -0.00858033 
C57      C      0.046260000000     0.447430000000     0.108490000000    -0.00861583 
C58      C      0.118360000000     0.361270000000     0.154400000000    -0.0563897  
C59      C      0.409450000000     0.106730000000     0.074030000000    -0.0293889  
C60      C      0.333210000000     0.155420000000     0.193780000000    -0.0294171  
C61      C      0.326090000000     0.212760000000     0.179510000000    -0.00856231 
C62      C      0.325320000000     0.176150000000     0.215890000000    -0.00872375 
C63      C      0.343470000000     0.133410000000     0.135880000000    -0.0564384  
C64      C      0.399200000000     0.128740000000     0.131930000000    -0.0563124  
C65      C      0.359990000000     0.149620000000     0.152760000000     0.0613639  
C66      C      0.333870000000     0.190880000000     0.158550000000    -0.0294004  
C67      C      0.382670000000     0.112530000000     0.115050000000     0.0612244  
C68      C      0.408790000000     0.071270000000     0.109250000000    -0.0292773  
C69      C      0.354800000000     0.115040000000     0.117220000000    -0.0540081  
C70      C      0.416580000000     0.049380000000     0.088300000000    -0.0087482  
C71      C      0.417350000000     0.086000000000     0.051920000000    -0.00870259 
C72      C      0.387860000000     0.147110000000     0.150590000000    -0.0541524  
C73      C      0.331060000000     0.357490000000     0.325690000000    -0.0292461  
C74      C      0.411610000000     0.404660000000     0.442110000000    -0.0291303  
C75      C      0.436580000000     0.453200000000     0.418390000000    -0.00839432 
C76      C      0.437270000000     0.415590000000     0.455110000000    -0.00831499 
C77      C      0.363720000000     0.400580000000     0.403410000000    -0.0565427  
C78      C      0.378950000000     0.361570000000     0.364400000000    -0.0565586  
C79      C      0.391060000000     0.395870000000     0.398150000000     0.0616852  
C80      C      0.410990000000     0.439980000000     0.407450000000    -0.0291959  
C81      C      0.351600000000     0.366280000000     0.369650000000     0.0617234  
C82      C      0.331680000000     0.322160000000     0.360350000000    -0.0293148  
C83      C      0.344200000000     0.385850000000     0.389200000000    -0.0541499  
C84      C      0.306090000000     0.308950000000     0.349410000000    -0.00820406 
C85      C      0.305400000000     0.346560000000     0.312690000000    -0.00825168 
C86      C      0.398470000000     0.376300000000     0.378610000000    -0.0541078  
C87      C      0.329650000000     0.153470000000     0.325850000000    -0.0294044  
C88      C      0.413010000000     0.108680000000     0.441950000000    -0.0294812  
C89      C      0.423180000000     0.051920000000     0.427090000000    -0.00906954 
C90      C      0.422360000000     0.088460000000     0.463920000000    -0.00862568 
C91      C      0.356510000000     0.113800000000     0.401000000000    -0.0539854  
C92      C      0.386160000000     0.148350000000     0.366810000000    -0.0540563  
C93      C      0.384550000000     0.112980000000     0.401950000000     0.060985   
C94      C      0.413750000000     0.073640000000     0.406600000000    -0.0292958  
C95      C      0.358110000000     0.149170000000     0.365850000000     0.0610471  
C96      C      0.328910000000     0.188510000000     0.361200000000    -0.0293163  
C97      C      0.343320000000     0.131700000000     0.383140000000    -0.0563655  
C98      C      0.319480000000     0.210230000000     0.340720000000    -0.00904191 
C99      C      0.320300000000     0.173690000000     0.303880000000    -0.00871308 
C100     C      0.399350000000     0.130450000000     0.384660000000    -0.0562817  
C101     C      0.167010000000     0.325970000000     0.363180000000    -0.0294417  
C102     C      0.075660000000     0.436180000000     0.404620000000    -0.0294601  
C103     C      0.049720000000     0.411430000000     0.452210000000    -0.00845404 
C104     C      0.048890000000     0.447610000000     0.414700000000    -0.00844038 
C105     C      0.126340000000     0.401080000000     0.403780000000    -0.0564099  
C106     C      0.116330000000     0.361070000000     0.364020000000    -0.0564031  
C107     C      0.099740000000     0.393940000000     0.397340000000     0.0613654  
C108     C      0.076440000000     0.401660000000     0.440330000000    -0.0294031  
C109     C      0.142930000000     0.368210000000     0.370470000000     0.0613474  
C110     C      0.166230000000     0.360490000000     0.327480000000    -0.0293841  
C111     C      0.147700000000     0.388250000000     0.390410000000    -0.054035   
C112     C      0.192950000000     0.350720000000     0.315600000000    -0.00837702 
C113     C      0.193770000000     0.314540000000     0.353110000000    -0.00841886 
C114     C      0.094970000000     0.373900000000     0.377400000000    -0.0540036  
C115     C      0.331680000000     0.356650000000     0.192650000000    -0.0293334  
C116     C      0.410980000000     0.405500000000     0.075150000000    -0.0293688  
C117     C      0.418520000000     0.462640000000     0.090080000000    -0.00850761 
C118     C      0.419350000000     0.426290000000     0.053290000000    -0.00886003 
C119     C      0.399260000000     0.383060000000     0.132590000000    -0.0563012  
C120     C      0.343400000000     0.379090000000     0.135220000000    -0.0563696  
C121     C      0.383320000000     0.399700000000     0.115540000000     0.0612613  
C122     C      0.410210000000     0.440580000000     0.110650000000    -0.0293686  
C123     C      0.359350000000     0.362450000000     0.152260000000     0.0612537  
C124     C      0.332460000000     0.321560000000     0.157150000000    -0.0294841  
C125     C      0.387290000000     0.364620000000     0.150760000000    -0.0541023  
C126     C      0.324140000000     0.299510000000     0.177720000000    -0.0085009  
C127     C      0.323320000000     0.335850000000     0.214520000000    -0.00889825 
C128     C      0.355380000000     0.397530000000     0.117050000000    -0.0540941  
C129     C      0.024370000000     0.455340000000     0.563520000000     0.394272   
C130     C      0.034280000000     0.053770000000     0.964490000000     0.39387    
C131     C      0.027910000000     0.456060000000     0.959790000000     0.391918   
C132     C      0.023010000000     0.059430000000     0.563700000000     0.394086   
C133     C      0.452590000000     0.050270000000     0.553220000000     0.383464   
C134     C      0.460530000000     0.459170000000     0.962040000000     0.387387   
C135     C      0.453920000000     0.462630000000     0.554390000000     0.385549   
C136     C      0.456740000000     0.052030000000     0.964550000000     0.384331   
C137     C      0.288740000000     0.299520000000     0.713420000000     0.385396   
C138     C      0.285920000000     0.210120000000     0.803250000000     0.384715   
C139     C      0.282140000000     0.302980000000     0.805770000000     0.387495   
C140     C      0.290080000000     0.211880000000     0.714590000000     0.383684   
C141     C      0.219660000000     0.202720000000     0.704100000000     0.394166   
C142     C      0.214760000000     0.306090000000     0.808020000000     0.392085   
C143     C      0.218290000000     0.306810000000     0.704290000000     0.39446    
C144     C      0.208390000000     0.208380000000     0.803320000000     0.393929   
C145     C      0.070220000000     0.113840000000     0.582600000000    -0.029395   
C146     C      0.172440000000     0.148310000000     0.685200000000    -0.029386   
C147     C      0.198990000000     0.194300000000     0.658620000000    -0.00856701 
C148     C      0.200350000000     0.157100000000     0.694650000000    -0.00850484 
C149     C      0.146560000000     0.122900000000     0.624500000000    -0.054065   
C150     C      0.096100000000     0.139250000000     0.643310000000    -0.0541245  
C151     C      0.144690000000     0.142950000000     0.644920000000     0.0614026  
C152     C      0.171140000000     0.184060000000     0.650470000000    -0.0294384  
C153     C      0.097980000000     0.119200000000     0.622890000000     0.0614338  
C154     C      0.071520000000     0.078090000000     0.617340000000    -0.0294239  
C155     C      0.123460000000     0.111060000000     0.613510000000    -0.0564429  
C156     C      0.043670000000     0.067850000000     0.609180000000    -0.00849956 
C157     C      0.042310000000     0.105050000000     0.573160000000    -0.00856403 
C158     C      0.119210000000     0.151090000000     0.654300000000    -0.0563745  
C159     C      0.077190000000     0.111160000000     0.941230000000    -0.029478   
C160     C      0.165470000000     0.150990000000     0.826570000000    -0.029403   
C161     C      0.174180000000     0.208350000000     0.839940000000    -0.00852708 
C162     C      0.175600000000     0.170510000000     0.804300000000    -0.00843739 
C163     C      0.149360000000     0.131240000000     0.883880000000    -0.0563801  
C164     C      0.093300000000     0.130910000000     0.883930000000    -0.0563484  
C165     C      0.135240000000     0.148020000000     0.865360000000     0.0613771  
C166     C      0.164350000000     0.187180000000     0.860660000000    -0.0291442  
C167     C      0.107430000000     0.114130000000     0.902440000000     0.0613811  
C168     C      0.078310000000     0.074970000000     0.907150000000    -0.0292655  
C169     C      0.135480000000     0.114460000000     0.902220000000    -0.0540694  
C170     C      0.068480000000     0.053800000000     0.927870000000    -0.00839446 
C171     C      0.067060000000     0.091640000000     0.963500000000    -0.00832099 
C172     C      0.107180000000     0.147690000000     0.865590000000    -0.0540456  
C173     C      0.073730000000     0.436120000000     0.616710000000    -0.0294304  
C174     C      0.168930000000     0.326030000000     0.651100000000    -0.0295965  
C175     C      0.199280000000     0.352470000000     0.694790000000    -0.00852166 
C176     C      0.196410000000     0.314720000000     0.659320000000    -0.00853037 
C177     C      0.146880000000     0.388010000000     0.624400000000    -0.0540062  
C178     C      0.095780000000     0.374140000000     0.643410000000    -0.0540641  
C179     C      0.144160000000     0.368140000000     0.644910000000     0.0612862  
C180     C      0.171660000000     0.362080000000     0.685330000000    -0.0292292  
C181     C      0.098510000000     0.394010000000     0.622890000000     0.0613364  
C182     C      0.071010000000     0.400070000000     0.582480000000    -0.0292365  
C183     C      0.124310000000     0.400880000000     0.613410000000    -0.0564232  
C184     C      0.043390000000     0.409680000000     0.573020000000    -0.00856531 
C185     C      0.046260000000     0.447430000000     0.608490000000    -0.00864855 
C186     C      0.118360000000     0.361270000000     0.654400000000    -0.0563759  
C187     C      0.409450000000     0.106730000000     0.574030000000    -0.0294161  
C188     C      0.333210000000     0.155420000000     0.693780000000    -0.0294399  
C189     C      0.326090000000     0.212760000000     0.679510000000    -0.00861154 
C190     C      0.325320000000     0.176150000000     0.715890000000    -0.00867169 
C191     C      0.343470000000     0.133410000000     0.635880000000    -0.0564148  
C192     C      0.399200000000     0.128740000000     0.631930000000    -0.0563312  
C193     C      0.359990000000     0.149620000000     0.652760000000     0.0613589  
C194     C      0.333870000000     0.190880000000     0.658550000000    -0.0293915  
C195     C      0.382670000000     0.112530000000     0.615050000000     0.0612843  
C196     C      0.408790000000     0.071270000000     0.609250000000    -0.0292275  
C197     C      0.354800000000     0.115040000000     0.617220000000    -0.0540218  
C198     C      0.416580000000     0.049380000000     0.588300000000    -0.00879934 
C199     C      0.417350000000     0.086000000000     0.551920000000    -0.00870852 
C200     C      0.387860000000     0.147110000000     0.650590000000    -0.0541338  
C201     C      0.331060000000     0.357490000000     0.825690000000    -0.0292466  
C202     C      0.411610000000     0.404660000000     0.942110000000    -0.0291275  
C203     C      0.436580000000     0.453200000000     0.918390000000    -0.00840242 
C204     C      0.437270000000     0.415590000000     0.955110000000    -0.00832446 
C205     C      0.363720000000     0.400580000000     0.903410000000    -0.0565336  
C206     C      0.378950000000     0.361570000000     0.864400000000    -0.0565521  
C207     C      0.391060000000     0.395870000000     0.898150000000     0.0616968  
C208     C      0.410990000000     0.439980000000     0.907450000000    -0.0291544  
C209     C      0.351600000000     0.366280000000     0.869650000000     0.0617296  
C210     C      0.331680000000     0.322160000000     0.860350000000    -0.0293159  
C211     C      0.344200000000     0.385850000000     0.889200000000    -0.0541335  
C212     C      0.306090000000     0.308950000000     0.849410000000    -0.00820583 
C213     C      0.305400000000     0.346560000000     0.812690000000    -0.00825294 
C214     C      0.398470000000     0.376300000000     0.878610000000    -0.0541033  
C215     C      0.329650000000     0.153470000000     0.825850000000    -0.0293994  
C216     C      0.413010000000     0.108680000000     0.941950000000    -0.0293827  
C217     C      0.423180000000     0.051920000000     0.927080000000    -0.00914785 
C218     C      0.422360000000     0.088460000000     0.963930000000    -0.00877377 
C219     C      0.356510000000     0.113800000000     0.901000000000    -0.0539652  
C220     C      0.386160000000     0.148350000000     0.866810000000    -0.0540564  
C221     C      0.384550000000     0.112980000000     0.901950000000     0.0609849  
C222     C      0.413750000000     0.073640000000     0.906600000000    -0.0292824  
C223     C      0.358110000000     0.149170000000     0.865850000000     0.0610563  
C224     C      0.328910000000     0.188510000000     0.861200000000    -0.0293211  
C225     C      0.343320000000     0.131700000000     0.883140000000    -0.056356   
C226     C      0.319480000000     0.210230000000     0.840720000000    -0.00904176 
C227     C      0.320300000000     0.173690000000     0.803880000000    -0.00874308 
C228     C      0.399350000000     0.130450000000     0.884670000000    -0.0562901  
C229     C      0.167010000000     0.325970000000     0.863180000000    -0.029439   
C230     C      0.075660000000     0.436180000000     0.904620000000    -0.0294792  
C231     C      0.049720000000     0.411430000000     0.952210000000    -0.00846867 
C232     C      0.048890000000     0.447610000000     0.914700000000    -0.00842713 
C233     C      0.126340000000     0.401080000000     0.903790000000    -0.0564499  
C234     C      0.116330000000     0.361070000000     0.864020000000    -0.0563419  
C235     C      0.099740000000     0.393940000000     0.897340000000     0.0614006  
C236     C      0.076440000000     0.401660000000     0.940330000000    -0.0293965  
C237     C      0.142930000000     0.368210000000     0.870470000000     0.0613316  
C238     C      0.166230000000     0.360490000000     0.827480000000    -0.0293522  
C239     C      0.147700000000     0.388250000000     0.890410000000    -0.0540123  
C240     C      0.192950000000     0.350720000000     0.815590000000    -0.00846171 
C241     C      0.193770000000     0.314540000000     0.853110000000    -0.00842822 
C242     C      0.094970000000     0.373900000000     0.877400000000    -0.0540291  
C243     C      0.331680000000     0.356650000000     0.692650000000    -0.029336   
C244     C      0.410980000000     0.405500000000     0.575150000000    -0.0293594  
C245     C      0.418520000000     0.462640000000     0.590080000000    -0.00851065 
C246     C      0.419350000000     0.426290000000     0.553290000000    -0.00887439 
C247     C      0.399260000000     0.383060000000     0.632590000000    -0.0562989  
C248     C      0.343400000000     0.379090000000     0.635220000000    -0.0563573  
C249     C      0.383320000000     0.399700000000     0.615540000000     0.0612746  
C250     C      0.410210000000     0.440580000000     0.610650000000    -0.0293658  
C251     C      0.359350000000     0.362450000000     0.652260000000     0.0612566  
C252     C      0.332460000000     0.321560000000     0.657150000000    -0.0294892  
C253     C      0.387290000000     0.364620000000     0.650760000000    -0.0540946  
C254     C      0.324140000000     0.299510000000     0.677720000000    -0.00849908 
C255     C      0.323320000000     0.335850000000     0.714520000000    -0.00889828 
C256     C      0.355380000000     0.397530000000     0.617050000000    -0.0540846  
C257     C      0.024370000000     0.955340000000     0.063510000000     0.394295   
C258     C      0.034280000000     0.553770000000     0.464490000000     0.393908   
C259     C      0.027910000000     0.956060000000     0.459790000000     0.391848   
C260     C      0.023010000000     0.559430000000     0.063700000000     0.394003   
C261     C      0.452590000000     0.550270000000     0.053220000000     0.383465   
C262     C      0.460530000000     0.959170000000     0.462040000000     0.387392   
C263     C      0.453920000000     0.962630000000     0.054390000000     0.385514   
C264     C      0.456740000000     0.552030000000     0.464550000000     0.384581   
C265     C      0.288740000000     0.799520000000     0.213420000000     0.385393   
C266     C      0.285920000000     0.710120000000     0.303250000000     0.384719   
C267     C      0.282140000000     0.802970000000     0.305770000000     0.3874     
C268     C      0.290080000000     0.711880000000     0.214590000000     0.383628   
C269     C      0.219660000000     0.702720000000     0.204100000000     0.394165   
C270     C      0.214760000000     0.806090000000     0.308020000000     0.392303   
C271     C      0.218290000000     0.806810000000     0.204290000000     0.394457   
C272     C      0.208390000000     0.708380000000     0.303320000000     0.394298   
C273     C      0.070220000000     0.613840000000     0.082600000000    -0.029437   
C274     C      0.172440000000     0.648310000000     0.185200000000    -0.0293867  
C275     C      0.198990000000     0.694300000000     0.158620000000    -0.00856483 
C276     C      0.200350000000     0.657100000000     0.194650000000    -0.00850501 
C277     C      0.146560000000     0.622900000000     0.124490000000    -0.0540697  
C278     C      0.096100000000     0.639250000000     0.143310000000    -0.054099   
C279     C      0.144690000000     0.642950000000     0.144920000000     0.0613911  
C280     C      0.171140000000     0.684060000000     0.150470000000    -0.0293984  
C281     C      0.097980000000     0.619200000000     0.122890000000     0.0614211  
C282     C      0.071520000000     0.578090000000     0.117340000000    -0.029406   
C283     C      0.123460000000     0.611060000000     0.113510000000    -0.0564312  
C284     C      0.043670000000     0.567850000000     0.109180000000    -0.00855516 
C285     C      0.042310000000     0.605050000000     0.073160000000    -0.00844392 
C286     C      0.119210000000     0.651090000000     0.154300000000    -0.0563833  
C287     C      0.077190000000     0.611160000000     0.441230000000    -0.0294235  
C288     C      0.165470000000     0.650990000000     0.326570000000    -0.0294492  
C289     C      0.174180000000     0.708350000000     0.339940000000    -0.00850326 
C290     C      0.175600000000     0.670510000000     0.304300000000    -0.00840547 
C291     C      0.149360000000     0.631240000000     0.383880000000    -0.0563807  
C292     C      0.093300000000     0.630910000000     0.383930000000    -0.0563492  
C293     C      0.135240000000     0.648020000000     0.365360000000     0.0613747  
C294     C      0.164350000000     0.687180000000     0.360660000000    -0.0291825  
C295     C      0.107430000000     0.614130000000     0.402440000000     0.0613781  
C296     C      0.078310000000     0.574970000000     0.407150000000    -0.0292572  
C297     C      0.135480000000     0.614460000000     0.402220000000    -0.0540715  
C298     C      0.068480000000     0.553800000000     0.427870000000    -0.00840811 
C299     C      0.067060000000     0.591640000000     0.463510000000    -0.00842009 
C300     C      0.107180000000     0.647690000000     0.365590000000    -0.0540459  
C301     C      0.073730000000     0.936130000000     0.116710000000    -0.0295353  
C302     C      0.168930000000     0.826030000000     0.151100000000    -0.0295421  
C303     C      0.199280000000     0.852470000000     0.194790000000    -0.00850396 
C304     C      0.196410000000     0.814720000000     0.159320000000    -0.00854692 
C305     C      0.146880000000     0.888010000000     0.124400000000    -0.0540079  
C306     C      0.095780000000     0.874140000000     0.143410000000    -0.0540835  
C307     C      0.144160000000     0.868140000000     0.144910000000     0.0612427  
C308     C      0.171660000000     0.862080000000     0.185330000000    -0.0292819  
C309     C      0.098510000000     0.894010000000     0.122890000000     0.0613326  
C310     C      0.071010000000     0.900070000000     0.082480000000    -0.029224   
C311     C      0.124310000000     0.900880000000     0.113410000000    -0.0563852  
C312     C      0.043390000000     0.909680000000     0.073020000000    -0.0086068  
C313     C      0.046260000000     0.947430000000     0.108490000000    -0.00857728 
C314     C      0.118360000000     0.861270000000     0.154400000000    -0.0563168  
C315     C      0.409450000000     0.606730000000     0.074030000000    -0.0294191  
C316     C      0.333210000000     0.655420000000     0.193780000000    -0.0294548  
C317     C      0.326090000000     0.712760000000     0.179510000000    -0.00857286 
C318     C      0.325320000000     0.676150000000     0.215890000000    -0.0087091  
C319     C      0.343470000000     0.633410000000     0.135880000000    -0.0564082  
C320     C      0.399200000000     0.628740000000     0.131930000000    -0.0563183  
C321     C      0.359990000000     0.649620000000     0.152760000000     0.06131    
C322     C      0.333870000000     0.690880000000     0.158550000000    -0.0293638  
C323     C      0.382670000000     0.612530000000     0.115050000000     0.0612065  
C324     C      0.408790000000     0.571270000000     0.109250000000    -0.0292436  
C325     C      0.354800000000     0.615040000000     0.117220000000    -0.0539945  
C326     C      0.416580000000     0.549380000000     0.088300000000    -0.0087694  
C327     C      0.417350000000     0.586000000000     0.051920000000    -0.0086917  
C328     C      0.387860000000     0.647110000000     0.150590000000    -0.0540906  
C329     C      0.331060000000     0.857490000000     0.325690000000    -0.0292945  
C330     C      0.411610000000     0.904660000000     0.442110000000    -0.0291364  
C331     C      0.436580000000     0.953200000000     0.418390000000    -0.00834533 
C332     C      0.437270000000     0.915590000000     0.455110000000    -0.00830547 
C333     C      0.363720000000     0.900580000000     0.403410000000    -0.0565373  
C334     C      0.378950000000     0.861560000000     0.364400000000    -0.0566148  
C335     C      0.391060000000     0.895870000000     0.398150000000     0.0616893  
C336     C      0.410990000000     0.939990000000     0.407450000000    -0.029308   
C337     C      0.351600000000     0.866280000000     0.369650000000     0.06177    
C338     C      0.331680000000     0.822160000000     0.360350000000    -0.0293085  
C339     C      0.344200000000     0.885840000000     0.389200000000    -0.0541481  
C340     C      0.306090000000     0.808950000000     0.349410000000    -0.00822642 
C341     C      0.305400000000     0.846560000000     0.312690000000    -0.00823998 
C342     C      0.398470000000     0.876300000000     0.378610000000    -0.0540844  
C343     C      0.329650000000     0.653470000000     0.325850000000    -0.0294092  
C344     C      0.413010000000     0.608680000000     0.441950000000    -0.0294877  
C345     C      0.423180000000     0.551920000000     0.427090000000    -0.00902691 
C346     C      0.422360000000     0.588450000000     0.463920000000    -0.00862996 
C347     C      0.356510000000     0.613800000000     0.401000000000    -0.0539835  
C348     C      0.386160000000     0.648350000000     0.366810000000    -0.0540042  
C349     C      0.384550000000     0.612980000000     0.401950000000     0.0610058  
C350     C      0.413750000000     0.573640000000     0.406600000000    -0.0293091  
C351     C      0.358110000000     0.649170000000     0.365850000000     0.0610333  
C352     C      0.328910000000     0.688510000000     0.361200000000    -0.0292941  
C353     C      0.343320000000     0.631700000000     0.383140000000    -0.0563445  
C354     C      0.319480000000     0.710230000000     0.340720000000    -0.00905198 
C355     C      0.320300000000     0.673690000000     0.303880000000    -0.0087121  
C356     C      0.399350000000     0.630450000000     0.384660000000    -0.0562989  
C357     C      0.167010000000     0.825970000000     0.363180000000    -0.0294723  
C358     C      0.075660000000     0.936170000000     0.404620000000    -0.0293187  
C359     C      0.049720000000     0.911430000000     0.452210000000    -0.00839387 
C360     C      0.048890000000     0.947610000000     0.414700000000    -0.0085065  
C361     C      0.126340000000     0.901080000000     0.403780000000    -0.0564015  
C362     C      0.116330000000     0.861070000000     0.364020000000    -0.0563973  
C363     C      0.099740000000     0.893940000000     0.397340000000     0.0613779  
C364     C      0.076440000000     0.901660000000     0.440330000000    -0.0294251  
C365     C      0.142930000000     0.868210000000     0.370470000000     0.061352   
C366     C      0.166230000000     0.860490000000     0.327480000000    -0.0293657  
C367     C      0.147700000000     0.888250000000     0.390410000000    -0.0540185  
C368     C      0.192950000000     0.850720000000     0.315600000000    -0.00843548 
C369     C      0.193770000000     0.814540000000     0.353110000000    -0.00840896 
C370     C      0.094970000000     0.873900000000     0.377400000000    -0.0540004  
C371     C      0.331680000000     0.856650000000     0.192650000000    -0.0293378  
C372     C      0.410980000000     0.905500000000     0.075150000000    -0.029404   
C373     C      0.418520000000     0.962640000000     0.090080000000    -0.00849045 
C374     C      0.419350000000     0.926300000000     0.053290000000    -0.00878276 
C375     C      0.399260000000     0.883060000000     0.132590000000    -0.0562831  
C376     C      0.343400000000     0.879090000000     0.135220000000    -0.0563727  
C377     C      0.383320000000     0.899700000000     0.115540000000     0.0612444  
C378     C      0.410210000000     0.940590000000     0.110650000000    -0.0294194  
C379     C      0.359350000000     0.862450000000     0.152260000000     0.0612657  
C380     C      0.332460000000     0.821570000000     0.157150000000    -0.029428   
C381     C      0.387290000000     0.864620000000     0.150760000000    -0.0541045  
C382     C      0.324140000000     0.799510000000     0.177720000000    -0.00853431 
C383     C      0.323320000000     0.835850000000     0.214520000000    -0.00889327 
C384     C      0.355380000000     0.897520000000     0.117050000000    -0.0540275  
C385     C      0.024370000000     0.955340000000     0.563520000000     0.39425    
C386     C      0.034280000000     0.553770000000     0.964490000000     0.393888   
C387     C      0.027910000000     0.956060000000     0.959790000000     0.39182    
C388     C      0.023010000000     0.559430000000     0.563700000000     0.394026   
C389     C      0.452590000000     0.550270000000     0.553220000000     0.383483   
C390     C      0.460530000000     0.959170000000     0.962040000000     0.387368   
C391     C      0.453920000000     0.962630000000     0.554390000000     0.385533   
C392     C      0.456740000000     0.552030000000     0.964550000000     0.384409   
C393     C      0.288740000000     0.799520000000     0.713420000000     0.385392   
C394     C      0.285920000000     0.710120000000     0.803250000000     0.384712   
C395     C      0.282140000000     0.802970000000     0.805770000000     0.387392   
C396     C      0.290080000000     0.711880000000     0.714590000000     0.383682   
C397     C      0.219660000000     0.702720000000     0.704100000000     0.394164   
C398     C      0.214760000000     0.806090000000     0.808020000000     0.392159   
C399     C      0.218290000000     0.806810000000     0.704290000000     0.394455   
C400     C      0.208390000000     0.708380000000     0.803320000000     0.393928   
C401     C      0.070220000000     0.613840000000     0.582600000000    -0.0294396  
C402     C      0.172440000000     0.648310000000     0.685200000000    -0.0293865  
C403     C      0.198990000000     0.694300000000     0.658620000000    -0.00856852 
C404     C      0.200350000000     0.657100000000     0.694650000000    -0.00850681 
C405     C      0.146560000000     0.622900000000     0.624500000000    -0.0540518  
C406     C      0.096100000000     0.639250000000     0.643310000000    -0.0541199  
C407     C      0.144690000000     0.642950000000     0.644920000000     0.0614085  
C408     C      0.171140000000     0.684060000000     0.650470000000    -0.0294385  
C409     C      0.097980000000     0.619200000000     0.622890000000     0.0614418  
C410     C      0.071520000000     0.578090000000     0.617340000000    -0.0294101  
C411     C      0.123460000000     0.611060000000     0.613510000000    -0.0564335  
C412     C      0.043670000000     0.567850000000     0.609180000000    -0.00854938 
C413     C      0.042310000000     0.605050000000     0.573160000000    -0.00844306 
C414     C      0.119210000000     0.651090000000     0.654300000000    -0.05637    
C415     C      0.077190000000     0.611160000000     0.941230000000    -0.0294753  
C416     C      0.165470000000     0.650990000000     0.826570000000    -0.0294464  
C417     C      0.174180000000     0.708350000000     0.839940000000    -0.00852634 
C418     C      0.175600000000     0.670510000000     0.804300000000    -0.00842405 
C419     C      0.149360000000     0.631240000000     0.883880000000    -0.0563677  
C420     C      0.093300000000     0.630910000000     0.883930000000    -0.0563462  
C421     C      0.135240000000     0.648020000000     0.865360000000     0.061379   
C422     C      0.164350000000     0.687180000000     0.860660000000    -0.0291471  
C423     C      0.107430000000     0.614130000000     0.902440000000     0.0613932  
C424     C      0.078310000000     0.574970000000     0.907150000000    -0.0292574  
C425     C      0.135480000000     0.614460000000     0.902220000000    -0.0540605  
C426     C      0.068480000000     0.553800000000     0.927870000000    -0.00840695 
C427     C      0.067060000000     0.591640000000     0.963500000000    -0.00832367 
C428     C      0.107180000000     0.647690000000     0.865590000000    -0.0540379  
C429     C      0.073730000000     0.936130000000     0.616710000000    -0.0295242  
C430     C      0.168930000000     0.826030000000     0.651100000000    -0.029541   
C431     C      0.199280000000     0.852470000000     0.694790000000    -0.00851775 
C432     C      0.196410000000     0.814720000000     0.659320000000    -0.00854975 
C433     C      0.146880000000     0.888010000000     0.624400000000    -0.0539688  
C434     C      0.095780000000     0.874140000000     0.643410000000    -0.0540896  
C435     C      0.144160000000     0.868140000000     0.644910000000     0.0612414  
C436     C      0.171660000000     0.862080000000     0.685330000000    -0.0292479  
C437     C      0.098510000000     0.894010000000     0.622890000000     0.061362   
C438     C      0.071010000000     0.900070000000     0.582480000000    -0.0292292  
C439     C      0.124310000000     0.900880000000     0.613410000000    -0.056428   
C440     C      0.043390000000     0.909680000000     0.573020000000    -0.00859178 
C441     C      0.046260000000     0.947430000000     0.608490000000    -0.00861002 
C442     C      0.118360000000     0.861270000000     0.654400000000    -0.056303   
C443     C      0.409450000000     0.606730000000     0.574030000000    -0.0294462  
C444     C      0.333210000000     0.655420000000     0.693780000000    -0.0294776  
C445     C      0.326090000000     0.712760000000     0.679510000000    -0.00862208 
C446     C      0.325320000000     0.676150000000     0.715890000000    -0.00865703 
C447     C      0.343470000000     0.633410000000     0.635880000000    -0.0563846  
C448     C      0.399200000000     0.628740000000     0.631930000000    -0.056337   
C449     C      0.359990000000     0.649620000000     0.652760000000     0.061305   
C450     C      0.333870000000     0.690880000000     0.658550000000    -0.0293549  
C451     C      0.382670000000     0.612530000000     0.615050000000     0.0612663  
C452     C      0.408790000000     0.571270000000     0.609250000000    -0.0291937  
C453     C      0.354800000000     0.615040000000     0.617220000000    -0.0540082  
C454     C      0.416580000000     0.549380000000     0.588300000000    -0.00882063 
C455     C      0.417350000000     0.586000000000     0.551920000000    -0.00869768 
C456     C      0.387860000000     0.647110000000     0.650590000000    -0.054072   
C457     C      0.331060000000     0.857490000000     0.825690000000    -0.029295   
C458     C      0.411610000000     0.904660000000     0.942110000000    -0.0291335  
C459     C      0.436580000000     0.953200000000     0.918390000000    -0.00835349 
C460     C      0.437270000000     0.915590000000     0.955110000000    -0.00831496 
C461     C      0.363720000000     0.900580000000     0.903410000000    -0.0565282  
C462     C      0.378950000000     0.861560000000     0.864400000000    -0.0566083  
C463     C      0.391060000000     0.895870000000     0.898150000000     0.0617009  
C464     C      0.410990000000     0.939990000000     0.907450000000    -0.0292664  
C465     C      0.351600000000     0.866280000000     0.869650000000     0.0617761  
C466     C      0.331680000000     0.822160000000     0.860350000000    -0.0293096  
C467     C      0.344200000000     0.885840000000     0.889200000000    -0.0541316  
C468     C      0.306090000000     0.808950000000     0.849410000000    -0.00822819 
C469     C      0.305400000000     0.846560000000     0.812690000000    -0.00824124 
C470     C      0.398470000000     0.876300000000     0.878610000000    -0.0540798  
C471     C      0.329650000000     0.653470000000     0.825850000000    -0.0294042  
C472     C      0.413010000000     0.608680000000     0.941950000000    -0.0293892  
C473     C      0.423180000000     0.551920000000     0.927080000000    -0.0091053  
C474     C      0.422360000000     0.588450000000     0.963930000000    -0.00877811 
C475     C      0.356510000000     0.613800000000     0.901000000000    -0.0539633  
C476     C      0.386160000000     0.648350000000     0.866810000000    -0.0540044  
C477     C      0.384550000000     0.612980000000     0.901950000000     0.0610058  
C478     C      0.413750000000     0.573640000000     0.906600000000    -0.0292957  
C479     C      0.358110000000     0.649170000000     0.865850000000     0.0610425  
C480     C      0.328910000000     0.688510000000     0.861200000000    -0.0292989  
C481     C      0.343320000000     0.631700000000     0.883140000000    -0.056335   
C482     C      0.319480000000     0.710230000000     0.840720000000    -0.00905183 
C483     C      0.320300000000     0.673690000000     0.803880000000    -0.0087421  
C484     C      0.399350000000     0.630450000000     0.884670000000    -0.0563073  
C485     C      0.167010000000     0.825970000000     0.863180000000    -0.0294695  
C486     C      0.075660000000     0.936170000000     0.904620000000    -0.0293377  
C487     C      0.049720000000     0.911430000000     0.952210000000    -0.0084085  
C488     C      0.048890000000     0.947610000000     0.914700000000    -0.00849328 
C489     C      0.126340000000     0.901080000000     0.903790000000    -0.0564415  
C490     C      0.116330000000     0.861070000000     0.864020000000    -0.0563361  
C491     C      0.099740000000     0.893940000000     0.897340000000     0.0614132  
C492     C      0.076440000000     0.901660000000     0.940330000000    -0.0294184  
C493     C      0.142930000000     0.868210000000     0.870470000000     0.0613361  
C494     C      0.166230000000     0.860490000000     0.827480000000    -0.0293338  
C495     C      0.147700000000     0.888250000000     0.890410000000    -0.0539958  
C496     C      0.192950000000     0.850720000000     0.815590000000    -0.00852014 
C497     C      0.193770000000     0.814540000000     0.853110000000    -0.00841836 
C498     C      0.094970000000     0.873900000000     0.877400000000    -0.0540259  
C499     C      0.331680000000     0.856650000000     0.692650000000    -0.0293404  
C500     C      0.410980000000     0.905500000000     0.575150000000    -0.0293947  
C501     C      0.418520000000     0.962640000000     0.590080000000    -0.00849352 
C502     C      0.419350000000     0.926300000000     0.553290000000    -0.00879714 
C503     C      0.399260000000     0.883060000000     0.632590000000    -0.0562807  
C504     C      0.343400000000     0.879090000000     0.635220000000    -0.0563604  
C505     C      0.383320000000     0.899700000000     0.615540000000     0.0612577  
C506     C      0.410210000000     0.940590000000     0.610650000000    -0.0294165  
C507     C      0.359350000000     0.862450000000     0.652260000000     0.0612686  
C508     C      0.332460000000     0.821570000000     0.657150000000    -0.0294331  
C509     C      0.387290000000     0.864620000000     0.650760000000    -0.0540967  
C510     C      0.324140000000     0.799510000000     0.677720000000    -0.00853249 
C511     C      0.323320000000     0.835850000000     0.714520000000    -0.0088933  
C512     C      0.355380000000     0.897520000000     0.617050000000    -0.054018   
C513     C      0.524370000000     0.455340000000     0.063510000000     0.394545   
C514     C      0.534280000000     0.053770000000     0.464490000000     0.394089   
C515     C      0.527910000000     0.456060000000     0.459790000000     0.392166   
C516     C      0.523010000000     0.059430000000     0.063700000000     0.394274   
C517     C      0.952590000000     0.050270000000     0.053220000000     0.383187   
C518     C      0.960530000000     0.459170000000     0.462040000000     0.387267   
C519     C      0.953920000000     0.462630000000     0.054390000000     0.385295   
C520     C      0.956740000000     0.052030000000     0.464550000000     0.384363   
C521     C      0.788740000000     0.299520000000     0.213420000000     0.385398   
C522     C      0.785920000000     0.210120000000     0.303250000000     0.384726   
C523     C      0.782130000000     0.302980000000     0.305770000000     0.387589   
C524     C      0.790080000000     0.211880000000     0.214590000000     0.383627   
C525     C      0.719660000000     0.202720000000     0.204100000000     0.394216   
C526     C      0.714760000000     0.306090000000     0.308020000000     0.392224   
C527     C      0.718290000000     0.306810000000     0.204290000000     0.39446    
C528     C      0.708390000000     0.208380000000     0.303320000000     0.394237   
C529     C      0.570220000000     0.113840000000     0.082600000000    -0.0294233  
C530     C      0.672440000000     0.148310000000     0.185200000000    -0.0293643  
C531     C      0.698990000000     0.194300000000     0.158620000000    -0.00856764 
C532     C      0.700350000000     0.157100000000     0.194650000000    -0.00853516 
C533     C      0.646560000000     0.122900000000     0.124490000000    -0.0541656  
C534     C      0.596100000000     0.139250000000     0.143310000000    -0.0541162  
C535     C      0.644690000000     0.142950000000     0.144920000000     0.0614149  
C536     C      0.671140000000     0.184060000000     0.150470000000    -0.0293836  
C537     C      0.597980000000     0.119200000000     0.122890000000     0.0613571  
C538     C      0.571520000000     0.078090000000     0.117340000000    -0.0294492  
C539     C      0.623460000000     0.111060000000     0.113510000000    -0.0564004  
C540     C      0.543670000000     0.067850000000     0.109180000000    -0.00846588 
C541     C      0.542310000000     0.105050000000     0.073160000000    -0.00852242 
C542     C      0.619210000000     0.151090000000     0.154300000000    -0.0564418  
C543     C      0.577190000000     0.111160000000     0.441230000000    -0.0294102  
C544     C      0.665470000000     0.150990000000     0.326570000000    -0.029408   
C545     C      0.674180000000     0.208350000000     0.339940000000    -0.00850331 
C546     C      0.675600000000     0.170510000000     0.304300000000    -0.0084131  
C547     C      0.649360000000     0.131240000000     0.383880000000    -0.0563994  
C548     C      0.593300000000     0.130910000000     0.383930000000    -0.0564227  
C549     C      0.635240000000     0.148020000000     0.365360000000     0.0613434  
C550     C      0.664350000000     0.187180000000     0.360660000000    -0.02918    
C551     C      0.607420000000     0.114130000000     0.402440000000     0.0613605  
C552     C      0.578310000000     0.074970000000     0.407150000000    -0.0292487  
C553     C      0.635480000000     0.114460000000     0.402220000000    -0.0540637  
C554     C      0.568480000000     0.053800000000     0.427870000000    -0.00841144 
C555     C      0.567060000000     0.091640000000     0.463510000000    -0.00843353 
C556     C      0.607180000000     0.147690000000     0.365590000000    -0.05405    
C557     C      0.573730000000     0.436120000000     0.116710000000    -0.0294707  
C558     C      0.668930000000     0.326030000000     0.151100000000    -0.0295829  
C559     C      0.699280000000     0.352470000000     0.194790000000    -0.00854519 
C560     C      0.696410000000     0.314720000000     0.159320000000    -0.00853366 
C561     C      0.646880000000     0.388010000000     0.124400000000    -0.0540586  
C562     C      0.595780000000     0.374140000000     0.143410000000    -0.0540833  
C563     C      0.644160000000     0.368140000000     0.144910000000     0.0612883  
C564     C      0.671660000000     0.362080000000     0.185330000000    -0.0292412  
C565     C      0.598510000000     0.394010000000     0.122890000000     0.0612638  
C566     C      0.571010000000     0.400070000000     0.082480000000    -0.0292625  
C567     C      0.624310000000     0.400880000000     0.113410000000    -0.0563713  
C568     C      0.543390000000     0.409680000000     0.073020000000    -0.00853717 
C569     C      0.546260000000     0.447430000000     0.108490000000    -0.00857746 
C570     C      0.618360000000     0.361270000000     0.154400000000    -0.0564298  
C571     C      0.909450000000     0.106730000000     0.074030000000    -0.0293616  
C572     C      0.833210000000     0.155420000000     0.193780000000    -0.029421   
C573     C      0.826090000000     0.212760000000     0.179510000000    -0.00857886 
C574     C      0.825320000000     0.176150000000     0.215890000000    -0.00871848 
C575     C      0.843470000000     0.133410000000     0.135880000000    -0.0563679  
C576     C      0.899200000000     0.128740000000     0.131930000000    -0.0563573  
C577     C      0.859990000000     0.149620000000     0.152760000000     0.0613159  
C578     C      0.833880000000     0.190880000000     0.158550000000    -0.0293565  
C579     C      0.882670000000     0.112530000000     0.115050000000     0.0612158  
C580     C      0.908790000000     0.071270000000     0.109250000000    -0.0292508  
C581     C      0.854800000000     0.115040000000     0.117220000000    -0.0540465  
C582     C      0.916580000000     0.049380000000     0.088300000000    -0.00878997 
C583     C      0.917350000000     0.086000000000     0.051920000000    -0.00874659 
C584     C      0.887860000000     0.147110000000     0.150590000000    -0.05419    
C585     C      0.831060000000     0.357490000000     0.325690000000    -0.0292207  
C586     C      0.911610000000     0.404660000000     0.442110000000    -0.0291226  
C587     C      0.936580000000     0.453200000000     0.418390000000    -0.00835868 
C588     C      0.937260000000     0.415590000000     0.455110000000    -0.00828065 
C589     C      0.863720000000     0.400580000000     0.403410000000    -0.0565167  
C590     C      0.878950000000     0.361570000000     0.364400000000    -0.0565943  
C591     C      0.891070000000     0.395870000000     0.398150000000     0.0616572  
C592     C      0.910990000000     0.439980000000     0.407450000000    -0.0292296  
C593     C      0.851600000000     0.366280000000     0.369650000000     0.061721   
C594     C      0.831680000000     0.322160000000     0.360350000000    -0.0292916  
C595     C      0.844200000000     0.385850000000     0.389200000000    -0.0541691  
C596     C      0.806090000000     0.308950000000     0.349410000000    -0.00825452 
C597     C      0.805400000000     0.346560000000     0.312690000000    -0.00828035 
C598     C      0.898470000000     0.376300000000     0.378610000000    -0.0541595  
C599     C      0.829650000000     0.153470000000     0.325850000000    -0.0294068  
C600     C      0.913010000000     0.108680000000     0.441950000000    -0.0294754  
C601     C      0.923190000000     0.051920000000     0.427090000000    -0.0090716  
C602     C      0.922370000000     0.088460000000     0.463920000000    -0.00862563 
C603     C      0.856500000000     0.113800000000     0.401000000000    -0.053991   
C604     C      0.886160000000     0.148350000000     0.366810000000    -0.054106   
C605     C      0.884550000000     0.112980000000     0.401950000000     0.0609419  
C606     C      0.913750000000     0.073640000000     0.406600000000    -0.0292888  
C607     C      0.858110000000     0.149170000000     0.365850000000     0.0610254  
C608     C      0.828910000000     0.188510000000     0.361200000000    -0.0293191  
C609     C      0.843320000000     0.131700000000     0.383140000000    -0.0563572  
C610     C      0.819480000000     0.210230000000     0.340720000000    -0.00903483 
C611     C      0.820300000000     0.173690000000     0.303880000000    -0.00870649 
C612     C      0.899350000000     0.130450000000     0.384660000000    -0.0563045  
C613     C      0.667010000000     0.325970000000     0.363180000000    -0.0294272  
C614     C      0.575660000000     0.436180000000     0.404620000000    -0.0294954  
C615     C      0.549720000000     0.411430000000     0.452210000000    -0.00842028 
C616     C      0.548890000000     0.447610000000     0.414700000000    -0.00839323 
C617     C      0.626340000000     0.401080000000     0.403780000000    -0.0563739  
C618     C      0.616330000000     0.361070000000     0.364020000000    -0.0564746  
C619     C      0.599740000000     0.393940000000     0.397340000000     0.0612603  
C620     C      0.576440000000     0.401660000000     0.440330000000    -0.0293985  
C621     C      0.642930000000     0.368210000000     0.370470000000     0.0613604  
C622     C      0.666230000000     0.360490000000     0.327480000000    -0.0293756  
C623     C      0.647700000000     0.388250000000     0.390410000000    -0.0540635  
C624     C      0.692950000000     0.350720000000     0.315600000000    -0.00838309 
C625     C      0.693770000000     0.314540000000     0.353110000000    -0.00842487 
C626     C      0.594970000000     0.373900000000     0.377400000000    -0.0539929  
C627     C      0.831680000000     0.356650000000     0.192650000000    -0.0293367  
C628     C      0.910990000000     0.405500000000     0.075150000000    -0.0293936  
C629     C      0.918520000000     0.462640000000     0.090080000000    -0.00854593 
C630     C      0.919350000000     0.426290000000     0.053290000000    -0.00887682 
C631     C      0.899260000000     0.383060000000     0.132590000000    -0.0563414  
C632     C      0.843410000000     0.379090000000     0.135220000000    -0.0563097  
C633     C      0.883320000000     0.399700000000     0.115540000000     0.0612488  
C634     C      0.910210000000     0.440580000000     0.110650000000    -0.0293436  
C635     C      0.859350000000     0.362450000000     0.152260000000     0.061217   
C636     C      0.832460000000     0.321560000000     0.157150000000    -0.0294821  
C637     C      0.887290000000     0.364620000000     0.150760000000    -0.0541432  
C638     C      0.824140000000     0.299510000000     0.177720000000    -0.00850954 
C639     C      0.823320000000     0.335850000000     0.214520000000    -0.00889141 
C640     C      0.855380000000     0.397530000000     0.117050000000    -0.0541212  
C641     C      0.524370000000     0.455340000000     0.563520000000     0.3945     
C642     C      0.534280000000     0.053770000000     0.964490000000     0.394068   
C643     C      0.527910000000     0.456060000000     0.959790000000     0.392137   
C644     C      0.523010000000     0.059430000000     0.563700000000     0.394297   
C645     C      0.952590000000     0.050270000000     0.553220000000     0.383205   
C646     C      0.960530000000     0.459170000000     0.962040000000     0.387244   
C647     C      0.953920000000     0.462630000000     0.554390000000     0.385315   
C648     C      0.956740000000     0.052030000000     0.964550000000     0.384191   
C649     C      0.788740000000     0.299520000000     0.713420000000     0.385396   
C650     C      0.785920000000     0.210120000000     0.803250000000     0.384719   
C651     C      0.782130000000     0.302980000000     0.805770000000     0.387581   
C652     C      0.790080000000     0.211880000000     0.714590000000     0.38368    
C653     C      0.719660000000     0.202720000000     0.704100000000     0.394215   
C654     C      0.714760000000     0.306090000000     0.808020000000     0.39208    
C655     C      0.718290000000     0.306810000000     0.704290000000     0.394458   
C656     C      0.708390000000     0.208380000000     0.803320000000     0.393867   
C657     C      0.570220000000     0.113840000000     0.582600000000    -0.0294259  
C658     C      0.672440000000     0.148310000000     0.685200000000    -0.0293642  
C659     C      0.698990000000     0.194300000000     0.658620000000    -0.00857135 
C660     C      0.700350000000     0.157100000000     0.694650000000    -0.00853695 
C661     C      0.646560000000     0.122900000000     0.624500000000    -0.0541477  
C662     C      0.596100000000     0.139250000000     0.643310000000    -0.0541371  
C663     C      0.644690000000     0.142950000000     0.644920000000     0.0614323  
C664     C      0.671140000000     0.184060000000     0.650470000000    -0.0294236  
C665     C      0.597980000000     0.119200000000     0.622890000000     0.0613778  
C666     C      0.571520000000     0.078090000000     0.617340000000    -0.0294533  
C667     C      0.623460000000     0.111060000000     0.613510000000    -0.0564028  
C668     C      0.543670000000     0.067850000000     0.609180000000    -0.0084601  
C669     C      0.542310000000     0.105050000000     0.573160000000    -0.00852156 
C670     C      0.619210000000     0.151090000000     0.654300000000    -0.0564285  
C671     C      0.577190000000     0.111160000000     0.941230000000    -0.0294619  
C672     C      0.665470000000     0.150990000000     0.826570000000    -0.0294052  
C673     C      0.674180000000     0.208350000000     0.839940000000    -0.00852637 
C674     C      0.675600000000     0.170510000000     0.804300000000    -0.00843168 
C675     C      0.649360000000     0.131240000000     0.883880000000    -0.0563863  
C676     C      0.593300000000     0.130910000000     0.883930000000    -0.0564198  
C677     C      0.635240000000     0.148020000000     0.865360000000     0.0613478  
C678     C      0.664350000000     0.187180000000     0.860660000000    -0.0291446  
C679     C      0.607420000000     0.114130000000     0.902440000000     0.0613756  
C680     C      0.578310000000     0.074970000000     0.907150000000    -0.029249   
C681     C      0.635480000000     0.114460000000     0.902220000000    -0.0540526  
C682     C      0.568480000000     0.053800000000     0.927870000000    -0.00841028 
C683     C      0.567060000000     0.091640000000     0.963500000000    -0.00833722 
C684     C      0.607180000000     0.147690000000     0.865590000000    -0.0540419  
C685     C      0.573730000000     0.436120000000     0.616710000000    -0.0294597  
C686     C      0.668930000000     0.326030000000     0.651100000000    -0.0295818  
C687     C      0.699280000000     0.352470000000     0.694790000000    -0.00855897 
C688     C      0.696410000000     0.314720000000     0.659320000000    -0.00853649 
C689     C      0.646880000000     0.388010000000     0.624400000000    -0.0540195  
C690     C      0.595780000000     0.374140000000     0.643410000000    -0.0540893  
C691     C      0.644160000000     0.368140000000     0.644910000000     0.0612869  
C692     C      0.671660000000     0.362080000000     0.685330000000    -0.0292072  
C693     C      0.598510000000     0.394010000000     0.622890000000     0.0612931  
C694     C      0.571010000000     0.400070000000     0.582480000000    -0.0292677  
C695     C      0.624310000000     0.400880000000     0.613410000000    -0.056414   
C696     C      0.543390000000     0.409680000000     0.573020000000    -0.00852214 
C697     C      0.546260000000     0.447430000000     0.608490000000    -0.00861003 
C698     C      0.618360000000     0.361270000000     0.654400000000    -0.056416   
C699     C      0.909450000000     0.106730000000     0.574030000000    -0.0293887  
C700     C      0.833210000000     0.155420000000     0.693780000000    -0.0294439  
C701     C      0.826090000000     0.212760000000     0.679510000000    -0.00862807 
C702     C      0.825320000000     0.176150000000     0.715890000000    -0.00866642 
C703     C      0.843470000000     0.133410000000     0.635880000000    -0.0563444  
C704     C      0.899200000000     0.128740000000     0.631930000000    -0.0563761  
C705     C      0.859990000000     0.149620000000     0.652760000000     0.0613109  
C706     C      0.833880000000     0.190880000000     0.658550000000    -0.0293476  
C707     C      0.882670000000     0.112530000000     0.615050000000     0.0612757  
C708     C      0.908790000000     0.071270000000     0.609250000000    -0.029201   
C709     C      0.854800000000     0.115040000000     0.617220000000    -0.0540602  
C710     C      0.916580000000     0.049380000000     0.588300000000    -0.00884112 
C711     C      0.917350000000     0.086000000000     0.551920000000    -0.00875255 
C712     C      0.887860000000     0.147110000000     0.650590000000    -0.0541714  
C713     C      0.831060000000     0.357490000000     0.825690000000    -0.0292212  
C714     C      0.911610000000     0.404660000000     0.942110000000    -0.0291197  
C715     C      0.936580000000     0.453200000000     0.918390000000    -0.00836676 
C716     C      0.937260000000     0.415590000000     0.955110000000    -0.00829014 
C717     C      0.863720000000     0.400580000000     0.903410000000    -0.0565076  
C718     C      0.878950000000     0.361570000000     0.864400000000    -0.0565877  
C719     C      0.891070000000     0.395870000000     0.898150000000     0.0616689  
C720     C      0.910990000000     0.439980000000     0.907450000000    -0.0291881  
C721     C      0.851600000000     0.366280000000     0.869650000000     0.0617272  
C722     C      0.831680000000     0.322160000000     0.860350000000    -0.0292928  
C723     C      0.844200000000     0.385850000000     0.889200000000    -0.0541527  
C724     C      0.806090000000     0.308950000000     0.849410000000    -0.0082563  
C725     C      0.805400000000     0.346560000000     0.812690000000    -0.00828161 
C726     C      0.898470000000     0.376300000000     0.878610000000    -0.0541549  
C727     C      0.829650000000     0.153470000000     0.825850000000    -0.0294018  
C728     C      0.913010000000     0.108680000000     0.941950000000    -0.0293769  
C729     C      0.923190000000     0.051920000000     0.927080000000    -0.00914991 
C730     C      0.922370000000     0.088460000000     0.963930000000    -0.00877357 
C731     C      0.856500000000     0.113800000000     0.901000000000    -0.0539707  
C732     C      0.886160000000     0.148350000000     0.866810000000    -0.0541061  
C733     C      0.884550000000     0.112980000000     0.901950000000     0.0609419  
C734     C      0.913750000000     0.073640000000     0.906600000000    -0.0292754  
C735     C      0.858110000000     0.149170000000     0.865850000000     0.0610346  
C736     C      0.828910000000     0.188510000000     0.861200000000    -0.0293239  
C737     C      0.843320000000     0.131700000000     0.883140000000    -0.0563476  
C738     C      0.819480000000     0.210230000000     0.840720000000    -0.00903467 
C739     C      0.820300000000     0.173690000000     0.803880000000    -0.00873648 
C740     C      0.899350000000     0.130450000000     0.884670000000    -0.0563128  
C741     C      0.667010000000     0.325970000000     0.863180000000    -0.0294245  
C742     C      0.575660000000     0.436180000000     0.904620000000    -0.0295145  
C743     C      0.549720000000     0.411430000000     0.952210000000    -0.00843493 
C744     C      0.548890000000     0.447610000000     0.914700000000    -0.00838004 
C745     C      0.626340000000     0.401080000000     0.903790000000    -0.0564138  
C746     C      0.616330000000     0.361070000000     0.864020000000    -0.0564133  
C747     C      0.599740000000     0.393940000000     0.897340000000     0.0612957  
C748     C      0.576440000000     0.401660000000     0.940330000000    -0.0293917  
C749     C      0.642930000000     0.368210000000     0.870470000000     0.0613445  
C750     C      0.666230000000     0.360490000000     0.827480000000    -0.0293437  
C751     C      0.647700000000     0.388250000000     0.890410000000    -0.0540408  
C752     C      0.692950000000     0.350720000000     0.815590000000    -0.00846778 
C753     C      0.693770000000     0.314540000000     0.853110000000    -0.00843423 
C754     C      0.594970000000     0.373900000000     0.877400000000    -0.0540184  
C755     C      0.831680000000     0.356650000000     0.692650000000    -0.0293393  
C756     C      0.910990000000     0.405500000000     0.575150000000    -0.0293843  
C757     C      0.918520000000     0.462640000000     0.590080000000    -0.00854897 
C758     C      0.919350000000     0.426290000000     0.553290000000    -0.00889119 
C759     C      0.899260000000     0.383060000000     0.632590000000    -0.0563391  
C760     C      0.843410000000     0.379090000000     0.635220000000    -0.0562974  
C761     C      0.883320000000     0.399700000000     0.615540000000     0.0612621  
C762     C      0.910210000000     0.440580000000     0.610650000000    -0.0293408  
C763     C      0.859350000000     0.362450000000     0.652260000000     0.0612198  
C764     C      0.832460000000     0.321560000000     0.657150000000    -0.0294872  
C765     C      0.887290000000     0.364620000000     0.650760000000    -0.0541354  
C766     C      0.824140000000     0.299510000000     0.677720000000    -0.00850773 
C767     C      0.823320000000     0.335850000000     0.714520000000    -0.00889144 
C768     C      0.855380000000     0.397530000000     0.617050000000    -0.0541118  
C769     C      0.524370000000     0.955340000000     0.063510000000     0.394523   
C770     C      0.534280000000     0.553770000000     0.464490000000     0.394107   
C771     C      0.527910000000     0.956060000000     0.459790000000     0.392068   
C772     C      0.523010000000     0.559430000000     0.063700000000     0.394214   
C773     C      0.952590000000     0.550270000000     0.053220000000     0.383206   
C774     C      0.960530000000     0.959170000000     0.462040000000     0.387248   
C775     C      0.953920000000     0.962630000000     0.054390000000     0.38528    
C776     C      0.956740000000     0.552030000000     0.464550000000     0.38444    
C777     C      0.788740000000     0.799520000000     0.213420000000     0.385394   
C778     C      0.785920000000     0.710120000000     0.303250000000     0.384723   
C779     C      0.782130000000     0.802970000000     0.305770000000     0.387486   
C780     C      0.790080000000     0.711880000000     0.214590000000     0.383625   
C781     C      0.719660000000     0.702720000000     0.204100000000     0.394215   
C782     C      0.714760000000     0.806090000000     0.308020000000     0.392298   
C783     C      0.718290000000     0.806810000000     0.204290000000     0.394455   
C784     C      0.708390000000     0.708380000000     0.303320000000     0.394236   
C785     C      0.570220000000     0.613840000000     0.082600000000    -0.0294678  
C786     C      0.672440000000     0.648310000000     0.185200000000    -0.0293649  
C787     C      0.698990000000     0.694300000000     0.158620000000    -0.00856915 
C788     C      0.700350000000     0.657100000000     0.194650000000    -0.00853713 
C789     C      0.646560000000     0.622900000000     0.124490000000    -0.0541525  
C790     C      0.596100000000     0.639250000000     0.143310000000    -0.0541116  
C791     C      0.644690000000     0.642950000000     0.144920000000     0.0614208  
C792     C      0.671140000000     0.684060000000     0.150470000000    -0.0293837  
C793     C      0.597980000000     0.619200000000     0.122890000000     0.0613651  
C794     C      0.571520000000     0.578090000000     0.117340000000    -0.0294354  
C795     C      0.623460000000     0.611060000000     0.113510000000    -0.0563911  
C796     C      0.543670000000     0.567850000000     0.109180000000    -0.00851574 
C797     C      0.542310000000     0.605050000000     0.073160000000    -0.00840153 
C798     C      0.619210000000     0.651090000000     0.154300000000    -0.0564373  
C799     C      0.577190000000     0.611160000000     0.441230000000    -0.0294075  
C800     C      0.665470000000     0.650990000000     0.326570000000    -0.0294513  
C801     C      0.674180000000     0.708350000000     0.339940000000    -0.00850256 
C802     C      0.675600000000     0.670510000000     0.304300000000    -0.00839977 
C803     C      0.649360000000     0.631240000000     0.383880000000    -0.056387   
C804     C      0.593300000000     0.630910000000     0.383930000000    -0.0564205  
C805     C      0.635240000000     0.648020000000     0.365360000000     0.0613454  
C806     C      0.664350000000     0.687180000000     0.360660000000    -0.0291829  
C807     C      0.607420000000     0.614130000000     0.402440000000     0.0613726  
C808     C      0.578310000000     0.574970000000     0.407150000000    -0.0292406  
C809     C      0.635480000000     0.614460000000     0.402220000000    -0.0540547  
C810     C      0.568480000000     0.553800000000     0.427870000000    -0.00842395 
C811     C      0.567060000000     0.591640000000     0.463510000000    -0.00843618 
C812     C      0.607180000000     0.647690000000     0.365590000000    -0.0540423  
C813     C      0.573730000000     0.936130000000     0.116710000000    -0.0295645  
C814     C      0.668930000000     0.826030000000     0.151100000000    -0.0295274  
C815     C      0.699280000000     0.852470000000     0.194790000000    -0.00854128 
C816     C      0.696410000000     0.814720000000     0.159320000000    -0.00855304 
C817     C      0.646880000000     0.888010000000     0.124400000000    -0.0540211  
C818     C      0.595780000000     0.874140000000     0.143410000000    -0.0541087  
C819     C      0.644160000000     0.868140000000     0.144910000000     0.0612435  
C820     C      0.671660000000     0.862080000000     0.185330000000    -0.0292599  
C821     C      0.598510000000     0.894010000000     0.122890000000     0.0612894  
C822     C      0.571010000000     0.900070000000     0.082480000000    -0.0292553  
C823     C      0.624310000000     0.900880000000     0.113410000000    -0.056376   
C824     C      0.543390000000     0.909680000000     0.073020000000    -0.00856355 
C825     C      0.546260000000     0.947430000000     0.108490000000    -0.00853898 
C826     C      0.618360000000     0.861270000000     0.154400000000    -0.0563569  
C827     C      0.909450000000     0.606730000000     0.074030000000    -0.0293918  
C828     C      0.833210000000     0.655420000000     0.193780000000    -0.0294588  
C829     C      0.826090000000     0.712760000000     0.179510000000    -0.00858941 
C830     C      0.825320000000     0.676150000000     0.215890000000    -0.00870384 
C831     C      0.843470000000     0.633410000000     0.135880000000    -0.0563378  
C832     C      0.899200000000     0.628740000000     0.131930000000    -0.0563632  
C833     C      0.859990000000     0.649620000000     0.152760000000     0.0612621  
C834     C      0.833880000000     0.690880000000     0.158550000000    -0.02932    
C835     C      0.882670000000     0.612530000000     0.115050000000     0.0611978  
C836     C      0.908790000000     0.571270000000     0.109250000000    -0.029217   
C837     C      0.854800000000     0.615040000000     0.117220000000    -0.0540329  
C838     C      0.916580000000     0.549380000000     0.088300000000    -0.0088112  
C839     C      0.917350000000     0.586000000000     0.051920000000    -0.00873571 
C840     C      0.887860000000     0.647110000000     0.150590000000    -0.0541283  
C841     C      0.831060000000     0.857490000000     0.325690000000    -0.029269   
C842     C      0.911610000000     0.904660000000     0.442110000000    -0.0291286  
C843     C      0.936580000000     0.953200000000     0.418390000000    -0.00830976 
C844     C      0.937260000000     0.915590000000     0.455110000000    -0.00827113 
C845     C      0.863720000000     0.900580000000     0.403410000000    -0.0565114  
C846     C      0.878950000000     0.861560000000     0.364400000000    -0.0566505  
C847     C      0.891070000000     0.895870000000     0.398150000000     0.0616613  
C848     C      0.910990000000     0.939990000000     0.407450000000    -0.0293416  
C849     C      0.851600000000     0.866280000000     0.369650000000     0.0617676  
C850     C      0.831680000000     0.822160000000     0.360350000000    -0.0292854  
C851     C      0.844200000000     0.885840000000     0.389200000000    -0.0541672  
C852     C      0.806090000000     0.808950000000     0.349410000000    -0.00827687 
C853     C      0.805400000000     0.846560000000     0.312690000000    -0.00826867 
C854     C      0.898470000000     0.876300000000     0.378610000000    -0.054136   
C855     C      0.829650000000     0.653470000000     0.325850000000    -0.0294116  
C856     C      0.913010000000     0.608680000000     0.441950000000    -0.0294819  
C857     C      0.923190000000     0.551920000000     0.427090000000    -0.00902897 
C858     C      0.922370000000     0.588450000000     0.463920000000    -0.00862988 
C859     C      0.856500000000     0.613800000000     0.401000000000    -0.0539891  
C860     C      0.886160000000     0.648350000000     0.366810000000    -0.054054   
C861     C      0.884550000000     0.612980000000     0.401950000000     0.0609628  
C862     C      0.913750000000     0.573640000000     0.406600000000    -0.0293021  
C863     C      0.858110000000     0.649170000000     0.365850000000     0.0610116  
C864     C      0.828910000000     0.688510000000     0.361200000000    -0.0292969  
C865     C      0.843320000000     0.631700000000     0.383140000000    -0.0563362  
C866     C      0.819480000000     0.710230000000     0.340720000000    -0.0090449  
C867     C      0.820300000000     0.673690000000     0.303880000000    -0.00870551 
C868     C      0.899350000000     0.630450000000     0.384660000000    -0.0563216  
C869     C      0.667010000000     0.825970000000     0.363180000000    -0.0294578  
C870     C      0.575660000000     0.936170000000     0.404620000000    -0.0293539  
C871     C      0.549720000000     0.911430000000     0.452210000000    -0.00836009 
C872     C      0.548890000000     0.947610000000     0.414700000000    -0.00845958 
C873     C      0.626340000000     0.901080000000     0.403780000000    -0.0563655  
C874     C      0.616330000000     0.861070000000     0.364020000000    -0.0564687  
C875     C      0.599740000000     0.893940000000     0.397340000000     0.061273   
C876     C      0.576440000000     0.901660000000     0.440330000000    -0.0294204  
C877     C      0.642930000000     0.868210000000     0.370470000000     0.0613649  
C878     C      0.666230000000     0.860490000000     0.327480000000    -0.0293572  
C879     C      0.647700000000     0.888250000000     0.390410000000    -0.0540469  
C880     C      0.692950000000     0.850720000000     0.315600000000    -0.00844155 
C881     C      0.693770000000     0.814540000000     0.353110000000    -0.00841498 
C882     C      0.594970000000     0.873900000000     0.377400000000    -0.0539897  
C883     C      0.831680000000     0.856650000000     0.192650000000    -0.0293411  
C884     C      0.910990000000     0.905500000000     0.075150000000    -0.0294289  
C885     C      0.918520000000     0.962640000000     0.090080000000    -0.00852875 
C886     C      0.919350000000     0.926300000000     0.053290000000    -0.00879947 
C887     C      0.899260000000     0.883060000000     0.132590000000    -0.0563232  
C888     C      0.843410000000     0.879090000000     0.135220000000    -0.0563127  
C889     C      0.883320000000     0.899700000000     0.115540000000     0.061232   
C890     C      0.910210000000     0.940590000000     0.110650000000    -0.0293944  
C891     C      0.859350000000     0.862450000000     0.152260000000     0.061229   
C892     C      0.832460000000     0.821570000000     0.157150000000    -0.029426   
C893     C      0.887290000000     0.864620000000     0.150760000000    -0.0541452  
C894     C      0.824140000000     0.799510000000     0.177720000000    -0.00854297 
C895     C      0.823320000000     0.835850000000     0.214520000000    -0.00888645 
C896     C      0.855380000000     0.897520000000     0.117050000000    -0.0540547  
C897     C      0.524370000000     0.955340000000     0.563520000000     0.394478   
C898     C      0.534280000000     0.553770000000     0.964490000000     0.394086   
C899     C      0.527910000000     0.956060000000     0.959790000000     0.39204    
C900     C      0.523010000000     0.559430000000     0.563700000000     0.394237   
C901     C      0.952590000000     0.550270000000     0.553220000000     0.383225   
C902     C      0.960530000000     0.959170000000     0.962040000000     0.387225   
C903     C      0.953920000000     0.962630000000     0.554390000000     0.385299   
C904     C      0.956740000000     0.552030000000     0.964550000000     0.384268   
C905     C      0.788740000000     0.799520000000     0.713420000000     0.385393   
C906     C      0.785920000000     0.710120000000     0.803250000000     0.384716   
C907     C      0.782130000000     0.802970000000     0.805770000000     0.387478   
C908     C      0.790080000000     0.711880000000     0.714590000000     0.383678   
C909     C      0.719660000000     0.702720000000     0.704100000000     0.394214   
C910     C      0.714760000000     0.806090000000     0.808020000000     0.392153   
C911     C      0.718290000000     0.806810000000     0.704290000000     0.394453   
C912     C      0.708390000000     0.708380000000     0.803320000000     0.393867   
C913     C      0.570220000000     0.613840000000     0.582600000000    -0.0294704  
C914     C      0.672440000000     0.648310000000     0.685200000000    -0.0293648  
C915     C      0.698990000000     0.694300000000     0.658620000000    -0.00857286 
C916     C      0.700350000000     0.657100000000     0.694650000000    -0.00853892 
C917     C      0.646560000000     0.622900000000     0.624500000000    -0.0541345  
C918     C      0.596100000000     0.639250000000     0.643310000000    -0.0541325  
C919     C      0.644690000000     0.642950000000     0.644920000000     0.0614383  
C920     C      0.671140000000     0.684060000000     0.650470000000    -0.0294237  
C921     C      0.597980000000     0.619200000000     0.622890000000     0.0613858  
C922     C      0.571520000000     0.578090000000     0.617340000000    -0.0294395  
C923     C      0.623460000000     0.611060000000     0.613510000000    -0.0563934  
C924     C      0.543670000000     0.567850000000     0.609180000000    -0.00850995 
C925     C      0.542310000000     0.605050000000     0.573160000000    -0.00840065 
C926     C      0.619210000000     0.651090000000     0.654300000000    -0.056424   
C927     C      0.577190000000     0.611160000000     0.941230000000    -0.0294592  
C928     C      0.665470000000     0.650990000000     0.826570000000    -0.0294486  
C929     C      0.674180000000     0.708350000000     0.839940000000    -0.00852562 
C930     C      0.675600000000     0.670510000000     0.804300000000    -0.00841835 
C931     C      0.649360000000     0.631240000000     0.883880000000    -0.0563739  
C932     C      0.593300000000     0.630910000000     0.883930000000    -0.0564176  
C933     C      0.635240000000     0.648020000000     0.865360000000     0.0613498  
C934     C      0.664350000000     0.687180000000     0.860660000000    -0.0291475  
C935     C      0.607420000000     0.614130000000     0.902440000000     0.0613878  
C936     C      0.578310000000     0.574970000000     0.907150000000    -0.0292408  
C937     C      0.635480000000     0.614460000000     0.902220000000    -0.0540437  
C938     C      0.568480000000     0.553800000000     0.927870000000    -0.00842279 
C939     C      0.567060000000     0.591640000000     0.963500000000    -0.00833989 
C940     C      0.607180000000     0.647690000000     0.865590000000    -0.0540342  
C941     C      0.573730000000     0.936130000000     0.616710000000    -0.0295535  
C942     C      0.668930000000     0.826030000000     0.651100000000    -0.0295264  
C943     C      0.699280000000     0.852470000000     0.694790000000    -0.00855507 
C944     C      0.696410000000     0.814720000000     0.659320000000    -0.00855587 
C945     C      0.646880000000     0.888010000000     0.624400000000    -0.053982   
C946     C      0.595780000000     0.874140000000     0.643410000000    -0.0541147  
C947     C      0.644160000000     0.868140000000     0.644910000000     0.0612422  
C948     C      0.671660000000     0.862080000000     0.685330000000    -0.029226   
C949     C      0.598510000000     0.894010000000     0.622890000000     0.0613188  
C950     C      0.571010000000     0.900070000000     0.582480000000    -0.0292605  
C951     C      0.624310000000     0.900880000000     0.613410000000    -0.0564188  
C952     C      0.543390000000     0.909680000000     0.573020000000    -0.00854851 
C953     C      0.546260000000     0.947430000000     0.608490000000    -0.00857156 
C954     C      0.618360000000     0.861270000000     0.654400000000    -0.0563431  
C955     C      0.909450000000     0.606730000000     0.574030000000    -0.0294188  
C956     C      0.833210000000     0.655420000000     0.693780000000    -0.0294816  
C957     C      0.826090000000     0.712760000000     0.679510000000    -0.00863863 
C958     C      0.825320000000     0.676150000000     0.715890000000    -0.00865177 
C959     C      0.843470000000     0.633410000000     0.635880000000    -0.0563142  
C960     C      0.899200000000     0.628740000000     0.631930000000    -0.0563819  
C961     C      0.859990000000     0.649620000000     0.652760000000     0.0612571  
C962     C      0.833880000000     0.690880000000     0.658550000000    -0.0293111  
C963     C      0.882670000000     0.612530000000     0.615050000000     0.0612576  
C964     C      0.908790000000     0.571270000000     0.609250000000    -0.0291671  
C965     C      0.854800000000     0.615040000000     0.617220000000    -0.0540465  
C966     C      0.916580000000     0.549380000000     0.588300000000    -0.00886244 
C967     C      0.917350000000     0.586000000000     0.551920000000    -0.00874171 
C968     C      0.887860000000     0.647110000000     0.650590000000    -0.0541097  
C969     C      0.831060000000     0.857490000000     0.825690000000    -0.0292695  
C970     C      0.911610000000     0.904660000000     0.942110000000    -0.0291257  
C971     C      0.936580000000     0.953200000000     0.918390000000    -0.0083179  
C972     C      0.937260000000     0.915590000000     0.955110000000    -0.00828063 
C973     C      0.863720000000     0.900580000000     0.903410000000    -0.0565023  
C974     C      0.878950000000     0.861560000000     0.864400000000    -0.0566439  
C975     C      0.891070000000     0.895870000000     0.898150000000     0.0616731  
C976     C      0.910990000000     0.939990000000     0.907450000000    -0.0293     
C977     C      0.851600000000     0.866280000000     0.869650000000     0.0617737  
C978     C      0.831680000000     0.822160000000     0.860350000000    -0.0292865  
C979     C      0.844200000000     0.885840000000     0.889200000000    -0.0541508  
C980     C      0.806090000000     0.808950000000     0.849410000000    -0.00827865 
C981     C      0.805400000000     0.846560000000     0.812690000000    -0.00826993 
C982     C      0.898470000000     0.876300000000     0.878610000000    -0.0541314  
C983     C      0.829650000000     0.653470000000     0.825850000000    -0.0294066  
C984     C      0.913010000000     0.608680000000     0.941950000000    -0.0293834  
C985     C      0.923190000000     0.551920000000     0.927080000000    -0.00910736 
C986     C      0.922370000000     0.588450000000     0.963930000000    -0.00877789 
C987     C      0.856500000000     0.613800000000     0.901000000000    -0.0539687  
C988     C      0.886160000000     0.648350000000     0.866810000000    -0.0540541  
C989     C      0.884550000000     0.612980000000     0.901950000000     0.0609628  
C990     C      0.913750000000     0.573640000000     0.906600000000    -0.0292887  
C991     C      0.858110000000     0.649170000000     0.865850000000     0.0610208  
C992     C      0.828910000000     0.688510000000     0.861200000000    -0.0293017  
C993     C      0.843320000000     0.631700000000     0.883140000000    -0.0563267  
C994     C      0.819480000000     0.710230000000     0.840720000000    -0.00904475 
C995     C      0.820300000000     0.673690000000     0.803880000000    -0.00873549 
C996     C      0.899350000000     0.630450000000     0.884670000000    -0.0563299  
C997     C      0.667010000000     0.825970000000     0.863180000000    -0.029455   
C998     C      0.575660000000     0.936170000000     0.904620000000    -0.0293729  
C999     C      0.549720000000     0.911430000000     0.952210000000    -0.00837475 
C1000    C      0.548890000000     0.947610000000     0.914700000000    -0.00844642 
C1001    C      0.626340000000     0.901080000000     0.903790000000    -0.0564054  
C1002    C      0.616330000000     0.861070000000     0.864020000000    -0.0564074  
C1003    C      0.599740000000     0.893940000000     0.897340000000     0.0613083  
C1004    C      0.576440000000     0.901660000000     0.940330000000    -0.0294137  
C1005    C      0.642930000000     0.868210000000     0.870470000000     0.0613491  
C1006    C      0.666230000000     0.860490000000     0.827480000000    -0.0293253  
C1007    C      0.647700000000     0.888250000000     0.890410000000    -0.0540241  
C1008    C      0.692950000000     0.850720000000     0.815590000000    -0.00852621 
C1009    C      0.693770000000     0.814540000000     0.853110000000    -0.00842437 
C1010    C      0.594970000000     0.873900000000     0.877400000000    -0.0540151  
C1011    C      0.831680000000     0.856650000000     0.692650000000    -0.0293437  
C1012    C      0.910990000000     0.905500000000     0.575150000000    -0.0294196  
C1013    C      0.918520000000     0.962640000000     0.590080000000    -0.00853182 
C1014    C      0.919350000000     0.926300000000     0.553290000000    -0.00881386 
C1015    C      0.899260000000     0.883060000000     0.632590000000    -0.0563209  
C1016    C      0.843410000000     0.879090000000     0.635220000000    -0.0563004  
C1017    C      0.883320000000     0.899700000000     0.615540000000     0.0612453  
C1018    C      0.910210000000     0.940590000000     0.610650000000    -0.0293915  
C1019    C      0.859350000000     0.862450000000     0.652260000000     0.0612318  
C1020    C      0.832460000000     0.821570000000     0.657150000000    -0.0294311  
C1021    C      0.887290000000     0.864620000000     0.650760000000    -0.0541375  
C1022    C      0.824140000000     0.799510000000     0.677720000000    -0.00854115 
C1023    C      0.823320000000     0.835850000000     0.714520000000    -0.00888647 
C1024    C      0.855380000000     0.897520000000     0.617050000000    -0.0540452  
Co1      Co     0.994740000000     0.006970000000     0.051390000000     0.8284     
Co2      Co     0.496700000000     0.506810000000     0.470380000000     0.832483   
Co3      Co     0.995990000000     0.466610000000     0.010790000000     0.828807   
Co4      Co     0.495590000000     0.047240000000     0.010800000000     0.832605   
Co5      Co     0.247920000000     0.255180000000     0.216420000000     0.831697   
Co6      Co     0.245970000000     0.255340000000     0.297430000000     0.832498   
Co7      Co     0.246680000000     0.295540000000     0.257020000000     0.832103   
Co8      Co     0.247070000000     0.214910000000     0.257010000000     0.833175   
Co9      Co     0.994740000000     0.006970000000     0.551390000000     0.828328   
Co10     Co     0.496700000000     0.506810000000     0.970380000000     0.832969   
Co11     Co     0.995990000000     0.466610000000     0.510790000000     0.829567   
Co12     Co     0.495590000000     0.047240000000     0.510800000000     0.833413   
Co13     Co     0.247920000000     0.255180000000     0.716420000000     0.831696   
Co14     Co     0.245970000000     0.255340000000     0.797430000000     0.832333   
Co15     Co     0.246680000000     0.295540000000     0.757020000000     0.832091   
Co16     Co     0.247070000000     0.214910000000     0.757010000000     0.833194   
Co17     Co     0.994740000000     0.506970000000     0.051390000000     0.829127   
Co18     Co     0.496700000000     0.006810000000     0.470380000000     0.831751   
Co19     Co     0.995990000000     0.966610000000     0.010790000000     0.829335   
Co20     Co     0.495590000000     0.547240000000     0.010800000000     0.832521   
Co21     Co     0.247920000000     0.755180000000     0.216420000000     0.831695   
Co22     Co     0.245970000000     0.755340000000     0.297430000000     0.832497   
Co23     Co     0.246680000000     0.795540000000     0.257020000000     0.832017   
Co24     Co     0.247070000000     0.714910000000     0.257010000000     0.83317    
Co25     Co     0.994740000000     0.506970000000     0.551390000000     0.829055   
Co26     Co     0.496700000000     0.006810000000     0.970380000000     0.832237   
Co27     Co     0.995990000000     0.966610000000     0.510790000000     0.830096   
Co28     Co     0.495590000000     0.547240000000     0.510800000000     0.833331   
Co29     Co     0.247920000000     0.755180000000     0.716420000000     0.831695   
Co30     Co     0.245970000000     0.755340000000     0.797430000000     0.832332   
Co31     Co     0.246680000000     0.795540000000     0.757020000000     0.832005   
Co32     Co     0.247070000000     0.714910000000     0.757010000000     0.833189   
Co33     Co     0.494740000000     0.006970000000     0.051390000000     0.830917   
Co34     Co     0.996700000000     0.506810000000     0.470380000000     0.830054   
Co35     Co     0.495990000000     0.466610000000     0.010790000000     0.831284   
Co36     Co     0.995600000000     0.047240000000     0.010800000000     0.83014    
Co37     Co     0.747920000000     0.255180000000     0.216420000000     0.831707   
Co38     Co     0.745970000000     0.255340000000     0.297430000000     0.832591   
Co39     Co     0.746680000000     0.295540000000     0.257020000000     0.832105   
Co40     Co     0.747070000000     0.214910000000     0.257010000000     0.83313    
Co41     Co     0.494740000000     0.006970000000     0.551390000000     0.830846   
Co42     Co     0.996700000000     0.506810000000     0.970380000000     0.830545   
Co43     Co     0.495990000000     0.466610000000     0.510790000000     0.832046   
Co44     Co     0.995600000000     0.047240000000     0.510800000000     0.830946   
Co45     Co     0.747920000000     0.255180000000     0.716420000000     0.831707   
Co46     Co     0.745970000000     0.255340000000     0.797430000000     0.832426   
Co47     Co     0.746680000000     0.295540000000     0.757020000000     0.832093   
Co48     Co     0.747070000000     0.214910000000     0.757010000000     0.833149   
Co49     Co     0.494740000000     0.506970000000     0.051390000000     0.831646   
Co50     Co     0.996700000000     0.006810000000     0.470380000000     0.829325   
Co51     Co     0.495990000000     0.966610000000     0.010790000000     0.831807   
Co52     Co     0.995600000000     0.547240000000     0.010800000000     0.830055   
Co53     Co     0.747920000000     0.755180000000     0.216420000000     0.831706   
Co54     Co     0.745970000000     0.755340000000     0.297430000000     0.83259    
Co55     Co     0.746680000000     0.795540000000     0.257020000000     0.832019   
Co56     Co     0.747070000000     0.714910000000     0.257010000000     0.833125   
Co57     Co     0.494740000000     0.506970000000     0.551390000000     0.831576   
Co58     Co     0.996700000000     0.006810000000     0.970380000000     0.829815   
Co59     Co     0.495990000000     0.966610000000     0.510790000000     0.83257    
Co60     Co     0.995600000000     0.547240000000     0.510800000000     0.830862   
Co61     Co     0.747920000000     0.755180000000     0.716420000000     0.831705   
Co62     Co     0.745970000000     0.755340000000     0.797430000000     0.832425   
Co63     Co     0.746680000000     0.795540000000     0.757020000000     0.832007   
Co64     Co     0.747070000000     0.714910000000     0.757010000000     0.833144   
H1       H      0.117210000000     0.166520000000     0.170090000000     0.0410526  
H2       H      0.072310000000     0.136200000000     0.079050000000     0.0347769  
H3       H      0.074550000000     0.073920000000     0.139600000000     0.0347865  
H4       H      0.213960000000     0.185350000000     0.144290000000     0.0392862  
H5       H      0.027220000000     0.118360000000     0.083310000000     0.0394346  
H6       H      0.170360000000     0.125950000000     0.188760000000     0.0347033  
H7       H      0.168110000000     0.188230000000     0.128200000000     0.0347097  
H8       H      0.201870000000     0.153680000000     0.217170000000     0.0462468  
H9       H      0.043140000000     0.045290000000     0.111760000000     0.045644   
H10      H      0.076640000000     0.145710000000     0.150700000000     0.0446326  
H11      H      0.040790000000     0.108470000000     0.050640000000     0.0463281  
H12      H      0.166030000000     0.116440000000     0.117110000000     0.0443899  
H13      H      0.085560000000     0.103120000000     0.069950000000     0.0382748  
H14      H      0.199520000000     0.216860000000     0.156050000000     0.0456231  
H15      H      0.028700000000     0.076800000000     0.123510000000     0.0395578  
H16      H      0.157110000000     0.159030000000     0.197860000000     0.0383709  
H17      H      0.155740000000     0.195660000000     0.162220000000     0.0382103  
H18      H      0.125460000000     0.095630000000     0.097720000000     0.0409195  
H19      H      0.086920000000     0.066490000000     0.105580000000     0.0381167  
H20      H      0.215450000000     0.143790000000     0.184490000000     0.0391193  
H21      H      0.096080000000     0.160540000000     0.351510000000     0.0446154  
H22      H      0.089170000000     0.127540000000     0.451290000000     0.0346943  
H23      H      0.091070000000     0.064390000000     0.391690000000     0.0346124  
H24      H      0.156620000000     0.219960000000     0.332100000000     0.0390705  
H25      H      0.084320000000     0.085330000000     0.476490000000     0.0390429  
H26      H      0.153490000000     0.134610000000     0.316520000000     0.0346428  
H27      H      0.151590000000     0.197760000000     0.376110000000     0.034645   
H28      H      0.189920000000     0.159270000000     0.290940000000     0.0451613  
H29      H      0.055270000000     0.039090000000     0.416930000000     0.0462473  
H30      H      0.071620000000     0.130970000000     0.383620000000     0.0411215  
H31      H      0.052750000000     0.102880000000     0.476870000000     0.0453205  
H32      H      0.171040000000     0.131180000000     0.384180000000     0.0409549  
H33      H      0.059710000000     0.120880000000     0.430900000000     0.0382669  
H34      H      0.187400000000     0.223060000000     0.350870000000     0.0462339  
H35      H      0.086050000000     0.042190000000     0.435710000000     0.0389073  
H36      H      0.182960000000     0.141270000000     0.336900000000     0.0380533  
H37      H      0.181910000000     0.178200000000     0.371530000000     0.0383636  
H38      H      0.146590000000     0.101610000000     0.416300000000     0.0444458  
H39      H      0.060760000000     0.083950000000     0.396280000000     0.0385488  
H40      H      0.158340000000     0.176820000000     0.291320000000     0.0391072  
H41      H      0.115700000000     0.346060000000     0.170290000000     0.0410013  
H42      H      0.077010000000     0.440480000000     0.138900000000     0.0347928  
H43      H      0.072370000000     0.377610000000     0.079140000000     0.0347841  
H44      H      0.214770000000     0.365250000000     0.184550000000     0.039517   
H45      H      0.031030000000     0.439600000000     0.123190000000     0.0400462  
H46      H      0.165660000000     0.321670000000     0.128910000000     0.0347332  
H47      H      0.170300000000     0.384540000000     0.188670000000     0.0347589  
H48      H      0.195920000000     0.292090000000     0.157390000000     0.045019   
H49      H      0.041760000000     0.406110000000     0.050530000000     0.0463083  
H50      H      0.076070000000     0.368610000000     0.150840000000     0.0446584  
H51      H      0.046750000000     0.470060000000     0.110420000000     0.0451557  
H52      H      0.166600000000     0.393540000000     0.116960000000     0.0444308  
H53      H      0.089550000000     0.446910000000     0.104750000000     0.0377625  
H54      H      0.200900000000     0.356040000000     0.217280000000     0.046234   
H55      H      0.027900000000     0.396900000000     0.083260000000     0.0398082  
H56      H      0.153120000000     0.315240000000     0.163060000000     0.0378535  
H57      H      0.156000000000     0.352010000000     0.198110000000     0.0381975  
H58      H      0.126960000000     0.416100000000     0.097510000000     0.0408543  
H59      H      0.086660000000     0.410140000000     0.069690000000     0.0381058  
H60      H      0.211640000000     0.322550000000     0.144620000000     0.0397238  
H61      H      0.400810000000     0.159450000000     0.163410000000     0.0444189  
H62      H      0.397430000000     0.123190000000     0.064180000000     0.0344469  
H63      H      0.396290000000     0.061540000000     0.125480000000     0.0344369  
H64      H      0.344650000000     0.223020000000     0.186830000000     0.0368182  
H65      H      0.398900000000     0.079240000000     0.041060000000     0.0368055  
H66      H      0.345240000000     0.138960000000     0.203630000000     0.034496   
H67      H      0.346370000000     0.200610000000     0.142330000000     0.03452    
H68      H      0.312220000000     0.165830000000     0.231170000000     0.0466437  
H69      H      0.429070000000     0.033740000000     0.098770000000     0.0468222  
H70      H      0.420790000000     0.127180000000     0.130680000000     0.0413892  
H71      H      0.430440000000     0.096320000000     0.036640000000     0.0465235  
H72      H      0.321880000000     0.134970000000     0.137120000000     0.0414008  
H73      H      0.427960000000     0.116060000000     0.082710000000     0.0394923  
H74      H      0.313590000000     0.228410000000     0.169040000000     0.0468739  
H75      H      0.398020000000     0.039130000000     0.080980000000     0.0367457  
H76      H      0.314710000000     0.146090000000     0.185100000000     0.0395201  
H77      H      0.315370000000     0.182730000000     0.148740000000     0.0396878  
H78      H      0.341850000000     0.102690000000     0.104390000000     0.0442879  
H79      H      0.427300000000     0.079420000000     0.119060000000     0.039648   
H80      H      0.343770000000     0.182910000000     0.226750000000     0.0369376  
H81      H      0.419450000000     0.372480000000     0.374420000000     0.0448628  
H82      H      0.331970000000     0.379930000000     0.322020000000     0.0345435  
H83      H      0.333020000000     0.318020000000     0.382800000000     0.0345283  
H84      H      0.453460000000     0.447870000000     0.404480000000     0.0423376  
H85      H      0.288400000000     0.359920000000     0.318860000000     0.0423654  
H86      H      0.410690000000     0.382220000000     0.445790000000     0.0345102  
H87      H      0.409650000000     0.444130000000     0.385010000000     0.0345072  
H88      H      0.435270000000     0.414090000000     0.477830000000     0.0450469  
H89      H      0.308560000000     0.286370000000     0.350170000000     0.0445566  
H90      H      0.385150000000     0.346580000000     0.349340000000     0.0405762  
H91      H      0.307400000000     0.348060000000     0.289970000000     0.0450265  
H92      H      0.357520000000     0.415570000000     0.418470000000     0.0405703  
H93      H      0.348710000000     0.347930000000     0.315500000000     0.0362556  
H94      H      0.434110000000     0.475780000000     0.417640000000     0.044622   
H95      H      0.289200000000     0.314280000000     0.363330000000     0.0422743  
H96      H      0.393960000000     0.414220000000     0.452310000000     0.0362165  
H97      H      0.393290000000     0.449540000000     0.417570000000     0.0361264  
H98      H      0.323220000000     0.389660000000     0.393380000000     0.0448753  
H99      H      0.349380000000     0.312610000000     0.350240000000     0.0361635  
H100     H      0.454260000000     0.402230000000     0.448950000000     0.0423897  
H101     H      0.421030000000     0.130260000000     0.385000000000     0.0410013  
H102     H      0.342250000000     0.137610000000     0.315750000000     0.0343925  
H103     H      0.340980000000     0.198760000000     0.377440000000     0.0344697  
H104     H      0.405520000000     0.039870000000     0.433920000000     0.0381479  
H105     H      0.338090000000     0.180940000000     0.292210000000     0.0377428  
H106     H      0.400420000000     0.124540000000     0.452050000000     0.0344337  
H107     H      0.401690000000     0.063380000000     0.390360000000     0.0343955  
H108     H      0.435590000000     0.099480000000     0.478590000000     0.0464265  
H109     H      0.305650000000     0.224430000000     0.351520000000     0.046283   
H110     H      0.397810000000     0.161630000000     0.353630000000     0.0443238  
H111     H      0.307070000000     0.162670000000     0.289220000000     0.0464469  
H112     H      0.344850000000     0.100510000000     0.414180000000     0.0442409  
H113     H      0.311840000000     0.143190000000     0.334990000000     0.038559   
H114     H      0.437020000000     0.037720000000     0.416290000000     0.046191   
H115     H      0.337150000000     0.222280000000     0.333880000000     0.0382345  
H116     H      0.430820000000     0.118950000000     0.432820000000     0.0386158  
H117     H      0.431560000000     0.083150000000     0.396670000000     0.0384477  
H118     H      0.321640000000     0.131880000000     0.382810000000     0.041005   
H119     H      0.311100000000     0.179000000000     0.371130000000     0.0384686  
H120     H      0.404570000000     0.081210000000     0.475590000000     0.0376947  
H121     H      0.074620000000     0.368220000000     0.372220000000     0.0448599  
H122     H      0.165580000000     0.322390000000     0.385720000000     0.0347491  
H123     H      0.164220000000     0.382760000000     0.323310000000     0.0347758  
H124     H      0.033560000000     0.397590000000     0.444880000000     0.0409615  
H125     H      0.210050000000     0.322650000000     0.366410000000     0.0406175  
H126     H      0.077090000000     0.439750000000     0.382080000000     0.0348402  
H127     H      0.078440000000     0.379390000000     0.444500000000     0.0348539  
H128     H      0.049250000000     0.470180000000     0.412140000000     0.0457391  
H129     H      0.192020000000     0.352530000000     0.292840000000     0.0450587  
H130     H      0.112090000000     0.345630000000     0.348720000000     0.0409161  
H131     H      0.193420000000     0.291960000000     0.355670000000     0.0455955  
H132     H      0.130570000000     0.416520000000     0.419090000000     0.0408163  
H133     H      0.150340000000     0.314700000000     0.353030000000     0.0374789  
H134     H      0.050650000000     0.409620000000     0.474970000000     0.0451813  
H135     H      0.209110000000     0.364560000000     0.322920000000     0.0406421  
H136     H      0.092330000000     0.447440000000     0.414780000000     0.0374599  
H137     H      0.093140000000     0.412420000000     0.450960000000     0.0374486  
H138     H      0.168050000000     0.393930000000     0.395590000000     0.0446852  
H139     H      0.149520000000     0.349730000000     0.316840000000     0.0374579  
H140     H      0.032620000000     0.439500000000     0.401390000000     0.0409271  
H141     H      0.342870000000     0.410190000000     0.104080000000     0.0443344  
H142     H      0.343670000000     0.372960000000     0.202790000000     0.0345339  
H143     H      0.345020000000     0.311880000000     0.140960000000     0.0345107  
H144     H      0.400220000000     0.473420000000     0.082860000000     0.0369685  
H145     H      0.341530000000     0.329030000000     0.225730000000     0.0375464  
H146     H      0.399000000000     0.389190000000     0.065020000000     0.0344861  
H147     H      0.397650000000     0.450270000000     0.126850000000     0.0344864  
H148     H      0.432710000000     0.415960000000     0.038260000000     0.046699   
H149     H      0.311380000000     0.284310000000     0.166920000000     0.0466692  
H150     H      0.321770000000     0.377820000000     0.135960000000     0.0412987  
H151     H      0.309960000000     0.346190000000     0.229550000000     0.0468112  
H152     H      0.420900000000     0.384330000000     0.131840000000     0.0412735  
H153     H      0.313390000000     0.366170000000     0.183720000000     0.039293   
H154     H      0.431280000000     0.477840000000     0.100890000000     0.0466672  
H155     H      0.342450000000     0.288730000000     0.184950000000     0.0369978  
H156     H      0.429280000000     0.395980000000     0.084090000000     0.0392674  
H157     H      0.428490000000     0.432060000000     0.120590000000     0.0393384  
H158     H      0.399800000000     0.351960000000     0.163730000000     0.0443734  
H159     H      0.314180000000     0.330090000000     0.147220000000     0.0393564  
H160     H      0.401130000000     0.433130000000     0.042070000000     0.0374232  
H161     H      0.117210000000     0.166520000000     0.670090000000     0.0410532  
H162     H      0.072310000000     0.136200000000     0.579050000000     0.0348315  
H163     H      0.074550000000     0.073920000000     0.639600000000     0.0347872  
H164     H      0.213960000000     0.185350000000     0.644300000000     0.0393224  
H165     H      0.027220000000     0.118360000000     0.583310000000     0.0394634  
H166     H      0.170360000000     0.125950000000     0.688760000000     0.0347048  
H167     H      0.168110000000     0.188230000000     0.628210000000     0.034766   
H168     H      0.201870000000     0.153680000000     0.717170000000     0.0462472  
H169     H      0.043140000000     0.045290000000     0.611760000000     0.0456483  
H170     H      0.076640000000     0.145710000000     0.650690000000     0.0446536  
H171     H      0.040790000000     0.108470000000     0.550640000000     0.046423   
H172     H      0.166030000000     0.116440000000     0.617110000000     0.0444178  
H173     H      0.085560000000     0.103120000000     0.569950000000     0.0383398  
H174     H      0.199520000000     0.216860000000     0.656040000000     0.0456272  
H175     H      0.028700000000     0.076800000000     0.623510000000     0.0395547  
H176     H      0.157110000000     0.159030000000     0.697860000000     0.0383694  
H177     H      0.155740000000     0.195660000000     0.662220000000     0.0382272  
H178     H      0.125460000000     0.095630000000     0.597720000000     0.0409614  
H179     H      0.086920000000     0.066490000000     0.605580000000     0.0381406  
H180     H      0.215450000000     0.143790000000     0.684490000000     0.0391258  
H181     H      0.096080000000     0.160540000000     0.851510000000     0.0446195  
H182     H      0.089170000000     0.127540000000     0.951290000000     0.0347735  
H183     H      0.091070000000     0.064390000000     0.891690000000     0.034617   
H184     H      0.156620000000     0.219960000000     0.832100000000     0.0390823  
H185     H      0.084320000000     0.085330000000     0.976490000000     0.0391178  
H186     H      0.153490000000     0.134610000000     0.816520000000     0.0346403  
H187     H      0.151590000000     0.197760000000     0.876120000000     0.0346529  
H188     H      0.189920000000     0.159270000000     0.790940000000     0.0451646  
H189     H      0.055270000000     0.039090000000     0.916930000000     0.0462517  
H190     H      0.071620000000     0.130970000000     0.883620000000     0.041131   
H191     H      0.052750000000     0.102880000000     0.976870000000     0.0453871  
H192     H      0.171040000000     0.131180000000     0.884180000000     0.0409764  
H193     H      0.059710000000     0.120880000000     0.930910000000     0.0383082  
H194     H      0.187400000000     0.223060000000     0.850870000000     0.046266   
H195     H      0.086050000000     0.042190000000     0.935710000000     0.0389501  
H196     H      0.182960000000     0.141270000000     0.836900000000     0.0380579  
H197     H      0.181910000000     0.178200000000     0.871530000000     0.0383787  
H198     H      0.146590000000     0.101610000000     0.916300000000     0.0444903  
H199     H      0.060760000000     0.083950000000     0.896280000000     0.0385489  
H200     H      0.158340000000     0.176820000000     0.791320000000     0.0391109  
H201     H      0.115700000000     0.346060000000     0.670290000000     0.0410025  
H202     H      0.077010000000     0.440480000000     0.638900000000     0.0347902  
H203     H      0.072370000000     0.377610000000     0.579140000000     0.0348389  
H204     H      0.214770000000     0.365250000000     0.684550000000     0.0395266  
H205     H      0.031030000000     0.439600000000     0.623180000000     0.0400613  
H206     H      0.165660000000     0.321670000000     0.628910000000     0.034767   
H207     H      0.170300000000     0.384540000000     0.688670000000     0.0347513  
H208     H      0.195920000000     0.292090000000     0.657390000000     0.0450344  
H209     H      0.041760000000     0.406110000000     0.550530000000     0.0463963  
H210     H      0.076070000000     0.368610000000     0.650840000000     0.0446665  
H211     H      0.046750000000     0.470060000000     0.610420000000     0.0451679  
H212     H      0.166600000000     0.393540000000     0.616960000000     0.0444573  
H213     H      0.089550000000     0.446910000000     0.604750000000     0.0377837  
H214     H      0.200900000000     0.356040000000     0.717280000000     0.0462345  
H215     H      0.027900000000     0.396900000000     0.583260000000     0.039831   
H216     H      0.153120000000     0.315240000000     0.663060000000     0.0378616  
H217     H      0.156000000000     0.352010000000     0.698120000000     0.0381749  
H218     H      0.126960000000     0.416100000000     0.597520000000     0.040923   
H219     H      0.086660000000     0.410140000000     0.569690000000     0.0381707  
H220     H      0.211640000000     0.322550000000     0.644620000000     0.0397488  
H221     H      0.400810000000     0.159450000000     0.663410000000     0.0444202  
H222     H      0.397430000000     0.123190000000     0.564180000000     0.0345199  
H223     H      0.396290000000     0.061540000000     0.625480000000     0.0344311  
H224     H      0.344650000000     0.223020000000     0.686830000000     0.0368362  
H225     H      0.398900000000     0.079240000000     0.541060000000     0.0369123  
H226     H      0.345240000000     0.138960000000     0.703630000000     0.0344983  
H227     H      0.346370000000     0.200610000000     0.642330000000     0.0345433  
H228     H      0.312220000000     0.165830000000     0.731170000000     0.0466332  
H229     H      0.429070000000     0.033740000000     0.598760000000     0.0468488  
H230     H      0.420790000000     0.127180000000     0.630680000000     0.0414034  
H231     H      0.430440000000     0.096320000000     0.536640000000     0.0466415  
H232     H      0.321880000000     0.134970000000     0.637120000000     0.0414145  
H233     H      0.427960000000     0.116060000000     0.582710000000     0.0395255  
H234     H      0.313590000000     0.228410000000     0.669040000000     0.0468959  
H235     H      0.398020000000     0.039130000000     0.580980000000     0.0367918  
H236     H      0.314710000000     0.146090000000     0.685100000000     0.0395266  
H237     H      0.315370000000     0.182730000000     0.648740000000     0.0397021  
H238     H      0.341850000000     0.102690000000     0.604390000000     0.0443319  
H239     H      0.427300000000     0.079420000000     0.619060000000     0.0396366  
H240     H      0.343770000000     0.182910000000     0.726750000000     0.0369279  
H241     H      0.419450000000     0.372480000000     0.874420000000     0.0448711  
H242     H      0.331970000000     0.379930000000     0.822020000000     0.034543   
H243     H      0.333020000000     0.318020000000     0.882800000000     0.0345625  
H244     H      0.453460000000     0.447870000000     0.904480000000     0.0423373  
H245     H      0.288400000000     0.359920000000     0.818860000000     0.0423701  
H246     H      0.410690000000     0.382220000000     0.945790000000     0.0345732  
H247     H      0.409650000000     0.444130000000     0.885000000000     0.0344843  
H248     H      0.435270000000     0.414090000000     0.977830000000     0.0451745  
H249     H      0.308560000000     0.286370000000     0.850170000000     0.0445696  
H250     H      0.385150000000     0.346580000000     0.849340000000     0.0405793  
H251     H      0.307400000000     0.348060000000     0.789970000000     0.0450249  
H252     H      0.357520000000     0.415570000000     0.918470000000     0.0406104  
H253     H      0.348710000000     0.347930000000     0.815500000000     0.0362533  
H254     H      0.434110000000     0.475780000000     0.917640000000     0.0446371  
H255     H      0.289200000000     0.314280000000     0.863330000000     0.042298   
H256     H      0.393960000000     0.414220000000     0.952310000000     0.0362871  
H257     H      0.393290000000     0.449540000000     0.917570000000     0.0361451  
H258     H      0.323220000000     0.389660000000     0.893380000000     0.0449056  
H259     H      0.349380000000     0.312610000000     0.850240000000     0.0361715  
H260     H      0.454260000000     0.402230000000     0.948950000000     0.0424336  
H261     H      0.421030000000     0.130260000000     0.885000000000     0.0410145  
H262     H      0.342250000000     0.137610000000     0.815750000000     0.0343881  
H263     H      0.340980000000     0.198760000000     0.877440000000     0.0345007  
H264     H      0.405520000000     0.039870000000     0.933930000000     0.0382184  
H265     H      0.338090000000     0.180940000000     0.792220000000     0.0377585  
H266     H      0.400420000000     0.124540000000     0.952050000000     0.0344887  
H267     H      0.401690000000     0.063380000000     0.890360000000     0.0343965  
H268     H      0.435590000000     0.099480000000     0.978590000000     0.0465873  
H269     H      0.305650000000     0.224430000000     0.851520000000     0.0462992  
H270     H      0.397810000000     0.161630000000     0.853630000000     0.0443304  
H271     H      0.307070000000     0.162670000000     0.789220000000     0.0464548  
H272     H      0.344850000000     0.100510000000     0.914180000000     0.044283   
H273     H      0.311840000000     0.143190000000     0.834990000000     0.0385626  
H274     H      0.437020000000     0.037720000000     0.916290000000     0.0462289  
H275     H      0.337150000000     0.222280000000     0.833880000000     0.0382388  
H276     H      0.430820000000     0.118950000000     0.932820000000     0.0386248  
H277     H      0.431560000000     0.083150000000     0.896670000000     0.0384457  
H278     H      0.321640000000     0.131880000000     0.882810000000     0.041027   
H279     H      0.311100000000     0.179000000000     0.871130000000     0.0384928  
H280     H      0.404570000000     0.081210000000     0.975590000000     0.0378578  
H281     H      0.074620000000     0.368220000000     0.872220000000     0.0448768  
H282     H      0.165580000000     0.322390000000     0.885720000000     0.034785   
H283     H      0.164220000000     0.382760000000     0.823310000000     0.0347679  
H284     H      0.033560000000     0.397590000000     0.944890000000     0.0410026  
H285     H      0.210050000000     0.322650000000     0.866410000000     0.0406475  
H286     H      0.077090000000     0.439750000000     0.882080000000     0.0348412  
H287     H      0.078440000000     0.379390000000     0.944500000000     0.0349146  
H288     H      0.049250000000     0.470180000000     0.912140000000     0.0457428  
H289     H      0.192020000000     0.352530000000     0.792840000000     0.0450849  
H290     H      0.112090000000     0.345630000000     0.848710000000     0.0408893  
H291     H      0.193420000000     0.291960000000     0.855670000000     0.045621   
H292     H      0.130570000000     0.416520000000     0.919090000000     0.0408839  
H293     H      0.150340000000     0.314700000000     0.853030000000     0.0374878  
H294     H      0.050650000000     0.409620000000     0.974970000000     0.0452905  
H295     H      0.209110000000     0.364560000000     0.822920000000     0.0406719  
H296     H      0.092330000000     0.447440000000     0.914770000000     0.0374887  
H297     H      0.093140000000     0.412420000000     0.950960000000     0.0375141  
H298     H      0.168050000000     0.393930000000     0.895580000000     0.0447223  
H299     H      0.149520000000     0.349730000000     0.816840000000     0.0374484  
H300     H      0.032620000000     0.439500000000     0.901390000000     0.0409232  
H301     H      0.342870000000     0.410190000000     0.604080000000     0.0443728  
H302     H      0.343670000000     0.372960000000     0.702790000000     0.0345317  
H303     H      0.345020000000     0.311880000000     0.640960000000     0.0345378  
H304     H      0.400220000000     0.473420000000     0.582860000000     0.0370024  
H305     H      0.341530000000     0.329030000000     0.725730000000     0.0375442  
H306     H      0.399000000000     0.389190000000     0.565020000000     0.034551   
H307     H      0.397650000000     0.450270000000     0.626850000000     0.0344886  
H308     H      0.432710000000     0.415960000000     0.538260000000     0.0468095  
H309     H      0.311380000000     0.284310000000     0.666920000000     0.0466811  
H310     H      0.321770000000     0.377820000000     0.635960000000     0.0413161  
H311     H      0.309960000000     0.346190000000     0.729550000000     0.0468096  
H312     H      0.420900000000     0.384330000000     0.631840000000     0.0412807  
H313     H      0.313390000000     0.366170000000     0.683720000000     0.0392966  
H314     H      0.431280000000     0.477840000000     0.600890000000     0.0466683  
H315     H      0.342450000000     0.288730000000     0.684950000000     0.0370012  
H316     H      0.429280000000     0.395980000000     0.584090000000     0.0392901  
H317     H      0.428490000000     0.432060000000     0.620590000000     0.0393353  
H318     H      0.399800000000     0.351960000000     0.663730000000     0.0443773  
H319     H      0.314180000000     0.330090000000     0.647220000000     0.0393768  
H320     H      0.401130000000     0.433130000000     0.542070000000     0.0375258  
H321     H      0.117210000000     0.666520000000     0.170090000000     0.0410546  
H322     H      0.072310000000     0.636200000000     0.079050000000     0.0347839  
H323     H      0.074550000000     0.573920000000     0.139600000000     0.0348351  
H324     H      0.213960000000     0.685350000000     0.144290000000     0.0392917  
H325     H      0.027220000000     0.618370000000     0.083310000000     0.0393945  
H326     H      0.170360000000     0.625950000000     0.188760000000     0.0347348  
H327     H      0.168110000000     0.688230000000     0.128200000000     0.0347095  
H328     H      0.201870000000     0.653680000000     0.217170000000     0.0462618  
H329     H      0.043140000000     0.545290000000     0.111760000000     0.0457377  
H330     H      0.076640000000     0.645710000000     0.150700000000     0.0446387  
H331     H      0.040790000000     0.608480000000     0.050640000000     0.0462878  
H332     H      0.166030000000     0.616440000000     0.117110000000     0.0444182  
H333     H      0.085560000000     0.603120000000     0.069950000000     0.0383004  
H334     H      0.199520000000     0.716860000000     0.156050000000     0.0456216  
H335     H      0.028700000000     0.576800000000     0.123510000000     0.0396017  
H336     H      0.157110000000     0.659030000000     0.197860000000     0.038378   
H337     H      0.155740000000     0.695660000000     0.162220000000     0.0382077  
H338     H      0.125460000000     0.595630000000     0.097720000000     0.0409519  
H339     H      0.086920000000     0.566490000000     0.105580000000     0.0381658  
H340     H      0.215450000000     0.643790000000     0.184490000000     0.039141   
H341     H      0.096080000000     0.660540000000     0.351510000000     0.044619   
H342     H      0.089170000000     0.627540000000     0.451290000000     0.0346961  
H343     H      0.091070000000     0.564390000000     0.391690000000     0.0346713  
H344     H      0.156620000000     0.719960000000     0.332100000000     0.0390689  
H345     H      0.084320000000     0.585330000000     0.476490000000     0.0390723  
H346     H      0.153490000000     0.634620000000     0.316520000000     0.0346916  
H347     H      0.151590000000     0.697760000000     0.376110000000     0.0346435  
H348     H      0.189920000000     0.659270000000     0.290940000000     0.045172   
H349     H      0.055270000000     0.539090000000     0.416930000000     0.0463417  
H350     H      0.071620000000     0.630970000000     0.383620000000     0.0411289  
H351     H      0.052750000000     0.602880000000     0.476870000000     0.0453231  
H352     H      0.171040000000     0.631180000000     0.384180000000     0.0409722  
H353     H      0.059710000000     0.620880000000     0.430900000000     0.0382654  
H354     H      0.187400000000     0.723060000000     0.350870000000     0.0462344  
H355     H      0.086050000000     0.542190000000     0.435710000000     0.0389963  
H356     H      0.182960000000     0.641270000000     0.336900000000     0.0380837  
H357     H      0.181910000000     0.678200000000     0.371530000000     0.0383684  
H358     H      0.146590000000     0.601610000000     0.416300000000     0.0444814  
H359     H      0.060760000000     0.583950000000     0.396280000000     0.0385713  
H360     H      0.158340000000     0.676820000000     0.291320000000     0.0391078  
H361     H      0.115700000000     0.846050000000     0.170290000000     0.0409716  
H362     H      0.077010000000     0.940490000000     0.138900000000     0.0348722  
H363     H      0.072370000000     0.877610000000     0.079140000000     0.034782   
H364     H      0.214770000000     0.865250000000     0.184550000000     0.0395374  
H365     H      0.031030000000     0.939600000000     0.123190000000     0.0400754  
H366     H      0.165660000000     0.821670000000     0.128910000000     0.0347203  
H367     H      0.170300000000     0.884540000000     0.188670000000     0.0347939  
H368     H      0.195920000000     0.792090000000     0.157390000000     0.0450214  
H369     H      0.041760000000     0.906110000000     0.050530000000     0.0463198  
H370     H      0.076070000000     0.868610000000     0.150840000000     0.0446751  
H371     H      0.046750000000     0.970060000000     0.110420000000     0.0452482  
H372     H      0.166600000000     0.893540000000     0.116960000000     0.044453   
H373     H      0.089550000000     0.946910000000     0.104750000000     0.0378565  
H374     H      0.200900000000     0.856040000000     0.217280000000     0.046249   
H375     H      0.027900000000     0.896910000000     0.083260000000     0.0398256  
H376     H      0.153120000000     0.815240000000     0.163060000000     0.0378391  
H377     H      0.156000000000     0.852010000000     0.198110000000     0.0382122  
H378     H      0.126960000000     0.916100000000     0.097510000000     0.0408951  
H379     H      0.086660000000     0.910140000000     0.069690000000     0.0381274  
H380     H      0.211640000000     0.822550000000     0.144620000000     0.0397332  
H381     H      0.400810000000     0.659460000000     0.163410000000     0.0443977  
H382     H      0.397430000000     0.623190000000     0.064180000000     0.0344547  
H383     H      0.396290000000     0.561540000000     0.125480000000     0.0344944  
H384     H      0.344650000000     0.723020000000     0.186830000000     0.0368192  
H385     H      0.398900000000     0.579240000000     0.041060000000     0.0368368  
H386     H      0.345240000000     0.638960000000     0.203630000000     0.0345272  
H387     H      0.346370000000     0.700610000000     0.142330000000     0.03451    
H388     H      0.312220000000     0.665830000000     0.231170000000     0.0466513  
H389     H      0.429070000000     0.533740000000     0.098770000000     0.0469361  
H390     H      0.420790000000     0.627180000000     0.130680000000     0.0414001  
H391     H      0.430440000000     0.596320000000     0.036640000000     0.0465231  
H392     H      0.321880000000     0.634970000000     0.137120000000     0.04141    
H393     H      0.427960000000     0.616060000000     0.082710000000     0.0394976  
H394     H      0.313590000000     0.728410000000     0.169040000000     0.0468743  
H395     H      0.398020000000     0.539130000000     0.080980000000     0.0368514  
H396     H      0.314710000000     0.646090000000     0.185100000000     0.0395448  
H397     H      0.315370000000     0.682730000000     0.148740000000     0.0396806  
H398     H      0.341850000000     0.602690000000     0.104390000000     0.0443215  
H399     H      0.427300000000     0.579410000000     0.119060000000     0.0396667  
H400     H      0.343770000000     0.682910000000     0.226750000000     0.036938   
H401     H      0.419450000000     0.872480000000     0.374420000000     0.0448661  
H402     H      0.331970000000     0.879920000000     0.322020000000     0.034598   
H403     H      0.333020000000     0.818020000000     0.382800000000     0.0345282  
H404     H      0.453460000000     0.947860000000     0.404480000000     0.0423704  
H405     H      0.288400000000     0.859920000000     0.318860000000     0.0423908  
H406     H      0.410690000000     0.882220000000     0.445790000000     0.0345113  
H407     H      0.409650000000     0.944130000000     0.385010000000     0.0346012  
H408     H      0.435270000000     0.914090000000     0.477830000000     0.0450544  
H409     H      0.308560000000     0.786370000000     0.350170000000     0.0445601  
H410     H      0.385150000000     0.846580000000     0.349340000000     0.0406095  
H411     H      0.307400000000     0.848060000000     0.289970000000     0.0450426  
H412     H      0.357520000000     0.915570000000     0.418470000000     0.0406063  
H413     H      0.348710000000     0.847930000000     0.315500000000     0.0362713  
H414     H      0.434110000000     0.975780000000     0.417640000000     0.044731   
H415     H      0.289200000000     0.814280000000     0.363330000000     0.0422873  
H416     H      0.393960000000     0.914220000000     0.452310000000     0.0362429  
H417     H      0.393290000000     0.949540000000     0.417570000000     0.0362275  
H418     H      0.323220000000     0.889670000000     0.393380000000     0.044899   
H419     H      0.349380000000     0.812610000000     0.350240000000     0.036159   
H420     H      0.454260000000     0.902230000000     0.448950000000     0.0423845  
H421     H      0.421030000000     0.630260000000     0.385000000000     0.0410143  
H422     H      0.342250000000     0.637610000000     0.315750000000     0.0344182  
H423     H      0.340980000000     0.698770000000     0.377440000000     0.0344526  
H424     H      0.405520000000     0.539870000000     0.433920000000     0.038236   
H425     H      0.338090000000     0.680940000000     0.292210000000     0.0377453  
H426     H      0.400420000000     0.624540000000     0.452050000000     0.0344377  
H427     H      0.401690000000     0.563380000000     0.390360000000     0.0344604  
H428     H      0.435590000000     0.599470000000     0.478590000000     0.0464336  
H429     H      0.305650000000     0.724430000000     0.351520000000     0.0462842  
H430     H      0.397810000000     0.661640000000     0.353630000000     0.0443035  
H431     H      0.307070000000     0.662670000000     0.289220000000     0.0464592  
H432     H      0.344850000000     0.600510000000     0.414180000000     0.0442793  
H433     H      0.311840000000     0.643190000000     0.334990000000     0.0385791  
H434     H      0.437020000000     0.537720000000     0.416290000000     0.04628    
H435     H      0.337150000000     0.722280000000     0.333880000000     0.0382326  
H436     H      0.430820000000     0.618950000000     0.432820000000     0.0386137  
H437     H      0.431560000000     0.583150000000     0.396670000000     0.0384731  
H438     H      0.321640000000     0.631880000000     0.382810000000     0.0410202  
H439     H      0.311100000000     0.679000000000     0.371130000000     0.0384684  
H440     H      0.404570000000     0.581210000000     0.475590000000     0.0377231  
H441     H      0.074620000000     0.868220000000     0.372220000000     0.0448666  
H442     H      0.165580000000     0.822390000000     0.385720000000     0.0347566  
H443     H      0.164220000000     0.882760000000     0.323310000000     0.0348047  
H444     H      0.033560000000     0.897590000000     0.444880000000     0.0409462  
H445     H      0.210050000000     0.822650000000     0.366410000000     0.0406218  
H446     H      0.077090000000     0.939750000000     0.382080000000     0.0348554  
H447     H      0.078440000000     0.879390000000     0.444500000000     0.0348588  
H448     H      0.049250000000     0.970190000000     0.412140000000     0.0458444  
H449     H      0.192020000000     0.852530000000     0.292840000000     0.0450881  
H450     H      0.112090000000     0.845630000000     0.348720000000     0.0409173  
H451     H      0.193420000000     0.791970000000     0.355670000000     0.0456043  
H452     H      0.130570000000     0.916520000000     0.419090000000     0.0408568  
H453     H      0.150340000000     0.814710000000     0.353030000000     0.0374967  
H454     H      0.050650000000     0.909620000000     0.474970000000     0.045176   
H455     H      0.209110000000     0.864560000000     0.322920000000     0.0406779  
H456     H      0.092330000000     0.947450000000     0.414780000000     0.0374687  
H457     H      0.093140000000     0.912420000000     0.450960000000     0.0374793  
H458     H      0.168050000000     0.893930000000     0.395590000000     0.0447161  
H459     H      0.149520000000     0.849730000000     0.316840000000     0.0374612  
H460     H      0.032620000000     0.939500000000     0.401390000000     0.0409737  
H461     H      0.342870000000     0.910190000000     0.104080000000     0.0443464  
H462     H      0.343670000000     0.872960000000     0.202790000000     0.0345613  
H463     H      0.345020000000     0.811880000000     0.140960000000     0.0344874  
H464     H      0.400220000000     0.973420000000     0.082860000000     0.0370761  
H465     H      0.341530000000     0.829020000000     0.225730000000     0.0375499  
H466     H      0.399000000000     0.889190000000     0.065020000000     0.0344966  
H467     H      0.397650000000     0.950270000000     0.126850000000     0.034574   
H468     H      0.432710000000     0.915960000000     0.038260000000     0.0466774  
H469     H      0.311380000000     0.784310000000     0.166920000000     0.0466743  
H470     H      0.321770000000     0.877820000000     0.135960000000     0.0413198  
H471     H      0.309960000000     0.846190000000     0.229550000000     0.0468233  
H472     H      0.420900000000     0.884330000000     0.131840000000     0.0412773  
H473     H      0.313390000000     0.866170000000     0.183720000000     0.0393127  
H474     H      0.431280000000     0.977840000000     0.100890000000     0.0467766  
H475     H      0.342450000000     0.788730000000     0.184950000000     0.0370003  
H476     H      0.429280000000     0.895980000000     0.084090000000     0.0392729  
H477     H      0.428490000000     0.932060000000     0.120590000000     0.039377   
H478     H      0.399800000000     0.851960000000     0.163730000000     0.0443797  
H479     H      0.314180000000     0.830090000000     0.147220000000     0.0393463  
H480     H      0.401130000000     0.933120000000     0.042070000000     0.0374404  
H481     H      0.117210000000     0.666520000000     0.670090000000     0.0410552  
H482     H      0.072310000000     0.636200000000     0.579050000000     0.0348386  
H483     H      0.074550000000     0.573920000000     0.639600000000     0.0348359  
H484     H      0.213960000000     0.685350000000     0.644300000000     0.0393279  
H485     H      0.027220000000     0.618370000000     0.583310000000     0.0394234  
H486     H      0.170360000000     0.625950000000     0.688760000000     0.0347363  
H487     H      0.168110000000     0.688230000000     0.628210000000     0.0347658  
H488     H      0.201870000000     0.653680000000     0.717170000000     0.0462621  
H489     H      0.043140000000     0.545290000000     0.611760000000     0.0457422  
H490     H      0.076640000000     0.645710000000     0.650690000000     0.0446597  
H491     H      0.040790000000     0.608480000000     0.550640000000     0.0463828  
H492     H      0.166030000000     0.616440000000     0.617110000000     0.0444461  
H493     H      0.085560000000     0.603120000000     0.569950000000     0.0383655  
H494     H      0.199520000000     0.716860000000     0.656040000000     0.0456258  
H495     H      0.028700000000     0.576800000000     0.623510000000     0.0395987  
H496     H      0.157110000000     0.659030000000     0.697860000000     0.0383765  
H497     H      0.155740000000     0.695660000000     0.662220000000     0.0382246  
H498     H      0.125460000000     0.595630000000     0.597720000000     0.040994   
H499     H      0.086920000000     0.566490000000     0.605580000000     0.0381899  
H500     H      0.215450000000     0.643790000000     0.684490000000     0.0391476  
H501     H      0.096080000000     0.660540000000     0.851510000000     0.0446231  
H502     H      0.089170000000     0.627540000000     0.951290000000     0.0347754  
H503     H      0.091070000000     0.564390000000     0.891690000000     0.034676   
H504     H      0.156620000000     0.719960000000     0.832100000000     0.0390807  
H505     H      0.084320000000     0.585330000000     0.976490000000     0.0391473  
H506     H      0.153490000000     0.634620000000     0.816520000000     0.0346892  
H507     H      0.151590000000     0.697760000000     0.876120000000     0.0346515  
H508     H      0.189920000000     0.659270000000     0.790940000000     0.0451753  
H509     H      0.055270000000     0.539090000000     0.916930000000     0.0463461  
H510     H      0.071620000000     0.630970000000     0.883620000000     0.0411384  
H511     H      0.052750000000     0.602880000000     0.976870000000     0.0453899  
H512     H      0.171040000000     0.631180000000     0.884180000000     0.0409937  
H513     H      0.059710000000     0.620880000000     0.930910000000     0.0383067  
H514     H      0.187400000000     0.723060000000     0.850870000000     0.0462665  
H515     H      0.086050000000     0.542190000000     0.935710000000     0.0390392  
H516     H      0.182960000000     0.641270000000     0.836900000000     0.0380883  
H517     H      0.181910000000     0.678200000000     0.871530000000     0.0383835  
H518     H      0.146590000000     0.601610000000     0.916300000000     0.0445259  
H519     H      0.060760000000     0.583950000000     0.896280000000     0.0385714  
H520     H      0.158340000000     0.676820000000     0.791320000000     0.0391115  
H521     H      0.115700000000     0.846050000000     0.670290000000     0.0409728  
H522     H      0.077010000000     0.940490000000     0.638900000000     0.0348697  
H523     H      0.072370000000     0.877610000000     0.579140000000     0.0348368  
H524     H      0.214770000000     0.865250000000     0.684550000000     0.039547   
H525     H      0.031030000000     0.939600000000     0.623180000000     0.0400905  
H526     H      0.165660000000     0.821670000000     0.628910000000     0.0347542  
H527     H      0.170300000000     0.884540000000     0.688670000000     0.0347864  
H528     H      0.195920000000     0.792090000000     0.657390000000     0.0450368  
H529     H      0.041760000000     0.906110000000     0.550530000000     0.0464079  
H530     H      0.076070000000     0.868610000000     0.650840000000     0.0446832  
H531     H      0.046750000000     0.970060000000     0.610420000000     0.0452605  
H532     H      0.166600000000     0.893540000000     0.616960000000     0.0444795  
H533     H      0.089550000000     0.946910000000     0.604750000000     0.0378778  
H534     H      0.200900000000     0.856040000000     0.717280000000     0.0462495  
H535     H      0.027900000000     0.896910000000     0.583260000000     0.0398483  
H536     H      0.153120000000     0.815240000000     0.663060000000     0.0378472  
H537     H      0.156000000000     0.852010000000     0.698120000000     0.0381896  
H538     H      0.126960000000     0.916100000000     0.597520000000     0.0409638  
H539     H      0.086660000000     0.910140000000     0.569690000000     0.0381923  
H540     H      0.211640000000     0.822550000000     0.644620000000     0.0397582  
H541     H      0.400810000000     0.659460000000     0.663410000000     0.044399   
H542     H      0.397430000000     0.623190000000     0.564180000000     0.0345277  
H543     H      0.396290000000     0.561540000000     0.625480000000     0.0344887  
H544     H      0.344650000000     0.723020000000     0.686830000000     0.0368372  
H545     H      0.398900000000     0.579240000000     0.541060000000     0.0369439  
H546     H      0.345240000000     0.638960000000     0.703630000000     0.0345295  
H547     H      0.346370000000     0.700610000000     0.642330000000     0.0345333  
H548     H      0.312220000000     0.665830000000     0.731170000000     0.0466408  
H549     H      0.429070000000     0.533740000000     0.598760000000     0.046963   
H550     H      0.420790000000     0.627180000000     0.630680000000     0.0414142  
H551     H      0.430440000000     0.596320000000     0.536640000000     0.0466412  
H552     H      0.321880000000     0.634970000000     0.637120000000     0.0414238  
H553     H      0.427960000000     0.616060000000     0.582710000000     0.0395308  
H554     H      0.313590000000     0.728410000000     0.669040000000     0.0468963  
H555     H      0.398020000000     0.539130000000     0.580980000000     0.0368978  
H556     H      0.314710000000     0.646090000000     0.685100000000     0.0395514  
H557     H      0.315370000000     0.682730000000     0.648740000000     0.0396949  
H558     H      0.341850000000     0.602690000000     0.604390000000     0.0443657  
H559     H      0.427300000000     0.579410000000     0.619060000000     0.0396552  
H560     H      0.343770000000     0.682910000000     0.726750000000     0.0369283  
H561     H      0.419450000000     0.872480000000     0.874420000000     0.0448745  
H562     H      0.331970000000     0.879920000000     0.822020000000     0.0345975  
H563     H      0.333020000000     0.818020000000     0.882800000000     0.0345624  
H564     H      0.453460000000     0.947860000000     0.904480000000     0.04237    
H565     H      0.288400000000     0.859920000000     0.818860000000     0.0423955  
H566     H      0.410690000000     0.882220000000     0.945790000000     0.0345743  
H567     H      0.409650000000     0.944130000000     0.885000000000     0.0345782  
H568     H      0.435270000000     0.914090000000     0.977830000000     0.0451819  
H569     H      0.308560000000     0.786370000000     0.850170000000     0.0445731  
H570     H      0.385150000000     0.846580000000     0.849340000000     0.0406126  
H571     H      0.307400000000     0.848060000000     0.789970000000     0.045041   
H572     H      0.357520000000     0.915570000000     0.918470000000     0.0406464  
H573     H      0.348710000000     0.847930000000     0.815500000000     0.036269   
H574     H      0.434110000000     0.975780000000     0.917640000000     0.0447461  
H575     H      0.289200000000     0.814280000000     0.863330000000     0.042311   
H576     H      0.393960000000     0.914220000000     0.952310000000     0.0363134  
H577     H      0.393290000000     0.949540000000     0.917570000000     0.0362461  
H578     H      0.323220000000     0.889670000000     0.893380000000     0.0449292  
H579     H      0.349380000000     0.812610000000     0.850240000000     0.0361671  
H580     H      0.454260000000     0.902230000000     0.948950000000     0.0424285  
H581     H      0.421030000000     0.630260000000     0.885000000000     0.0410276  
H582     H      0.342250000000     0.637610000000     0.815750000000     0.0344139  
H583     H      0.340980000000     0.698770000000     0.877440000000     0.0344835  
H584     H      0.405520000000     0.539870000000     0.933930000000     0.0383066  
H585     H      0.338090000000     0.680940000000     0.792220000000     0.037761   
H586     H      0.400420000000     0.624540000000     0.952050000000     0.0344928  
H587     H      0.401690000000     0.563380000000     0.890360000000     0.0344615  
H588     H      0.435590000000     0.599470000000     0.978590000000     0.0465945  
H589     H      0.305650000000     0.724430000000     0.851520000000     0.0463004  
H590     H      0.397810000000     0.661640000000     0.853630000000     0.0443101  
H591     H      0.307070000000     0.662670000000     0.789220000000     0.0464672  
H592     H      0.344850000000     0.600510000000     0.914180000000     0.0443214  
H593     H      0.311840000000     0.643190000000     0.834990000000     0.0385828  
H594     H      0.437020000000     0.537720000000     0.916290000000     0.0463179  
H595     H      0.337150000000     0.722280000000     0.833880000000     0.0382369  
H596     H      0.430820000000     0.618950000000     0.932820000000     0.0386226  
H597     H      0.431560000000     0.583150000000     0.896670000000     0.0384711  
H598     H      0.321640000000     0.631880000000     0.882810000000     0.0410422  
H599     H      0.311100000000     0.679000000000     0.871130000000     0.0384926  
H600     H      0.404570000000     0.581210000000     0.975590000000     0.0378864  
H601     H      0.074620000000     0.868220000000     0.872220000000     0.0448835  
H602     H      0.165580000000     0.822390000000     0.885720000000     0.0347925  
H603     H      0.164220000000     0.882760000000     0.823310000000     0.0347968  
H604     H      0.033560000000     0.897590000000     0.944890000000     0.0409873  
H605     H      0.210050000000     0.822650000000     0.866410000000     0.0406518  
H606     H      0.077090000000     0.939750000000     0.882080000000     0.0348563  
H607     H      0.078440000000     0.879390000000     0.944500000000     0.0349195  
H608     H      0.049250000000     0.970190000000     0.912140000000     0.0458481  
H609     H      0.192020000000     0.852530000000     0.792840000000     0.0451142  
H610     H      0.112090000000     0.845630000000     0.848710000000     0.0408904  
H611     H      0.193420000000     0.791970000000     0.855670000000     0.0456297  
H612     H      0.130570000000     0.916520000000     0.919090000000     0.0409244  
H613     H      0.150340000000     0.814710000000     0.853030000000     0.0375056  
H614     H      0.050650000000     0.909620000000     0.974970000000     0.0452852  
H615     H      0.209110000000     0.864560000000     0.822920000000     0.0407077  
H616     H      0.092330000000     0.947450000000     0.914770000000     0.0374975  
H617     H      0.093140000000     0.912420000000     0.950960000000     0.0375447  
H618     H      0.168050000000     0.893930000000     0.895580000000     0.0447532  
H619     H      0.149520000000     0.849730000000     0.816840000000     0.0374517  
H620     H      0.032620000000     0.939500000000     0.901390000000     0.0409698  
H621     H      0.342870000000     0.910190000000     0.604080000000     0.0443848  
H622     H      0.343670000000     0.872960000000     0.702790000000     0.0345591  
H623     H      0.345020000000     0.811880000000     0.640960000000     0.0345145  
H624     H      0.400220000000     0.973420000000     0.582860000000     0.0371101  
H625     H      0.341530000000     0.829020000000     0.725730000000     0.0375477  
H626     H      0.399000000000     0.889190000000     0.565020000000     0.0345615  
H627     H      0.397650000000     0.950270000000     0.626850000000     0.0345762  
H628     H      0.432710000000     0.915960000000     0.538260000000     0.0467879  
H629     H      0.311380000000     0.784310000000     0.666920000000     0.0466863  
H630     H      0.321770000000     0.877820000000     0.635960000000     0.0413373  
H631     H      0.309960000000     0.846190000000     0.729550000000     0.0468218  
H632     H      0.420900000000     0.884330000000     0.631840000000     0.0412845  
H633     H      0.313390000000     0.866170000000     0.683720000000     0.0393163  
H634     H      0.431280000000     0.977840000000     0.600890000000     0.0467779  
H635     H      0.342450000000     0.788730000000     0.684950000000     0.0370037  
H636     H      0.429280000000     0.895980000000     0.584090000000     0.0392957  
H637     H      0.428490000000     0.932060000000     0.620590000000     0.0393739  
H638     H      0.399800000000     0.851960000000     0.663730000000     0.0443835  
H639     H      0.314180000000     0.830090000000     0.647220000000     0.0393667  
H640     H      0.401130000000     0.933120000000     0.542070000000     0.0375431  
H641     H      0.617210000000     0.166520000000     0.170090000000     0.0409909  
H642     H      0.572310000000     0.136200000000     0.079050000000     0.0346838  
H643     H      0.574550000000     0.073920000000     0.139600000000     0.0347018  
H644     H      0.713960000000     0.185350000000     0.144290000000     0.0392949  
H645     H      0.527220000000     0.118360000000     0.083310000000     0.0391297  
H646     H      0.670360000000     0.125950000000     0.188760000000     0.0346849  
H647     H      0.668110000000     0.188230000000     0.128200000000     0.0346905  
H648     H      0.701870000000     0.153680000000     0.217170000000     0.0462587  
H649     H      0.543140000000     0.045290000000     0.111760000000     0.0455031  
H650     H      0.576640000000     0.145710000000     0.150700000000     0.0444714  
H651     H      0.540790000000     0.108470000000     0.050640000000     0.046166   
H652     H      0.666020000000     0.116440000000     0.117110000000     0.0444382  
H653     H      0.585560000000     0.103120000000     0.069950000000     0.0382728  
H654     H      0.699520000000     0.216860000000     0.156050000000     0.0456192  
H655     H      0.528700000000     0.076800000000     0.123510000000     0.0392647  
H656     H      0.657110000000     0.159030000000     0.197860000000     0.038337   
H657     H      0.655740000000     0.195660000000     0.162220000000     0.0381738  
H658     H      0.625460000000     0.095630000000     0.097720000000     0.0409102  
H659     H      0.586920000000     0.066490000000     0.105580000000     0.0381167  
H660     H      0.715440000000     0.143790000000     0.184490000000     0.0391405  
H661     H      0.596070000000     0.160540000000     0.351510000000     0.0444662  
H662     H      0.589170000000     0.127540000000     0.451290000000     0.0346284  
H663     H      0.591070000000     0.064390000000     0.391690000000     0.0345513  
H664     H      0.656620000000     0.219960000000     0.332100000000     0.0390206  
H665     H      0.584320000000     0.085330000000     0.476490000000     0.0390394  
H666     H      0.653490000000     0.134610000000     0.316520000000     0.0346104  
H667     H      0.651590000000     0.197760000000     0.376110000000     0.0346096  
H668     H      0.689920000000     0.159270000000     0.290940000000     0.0451597  
H669     H      0.555270000000     0.039090000000     0.416930000000     0.0461119  
H670     H      0.571620000000     0.130970000000     0.383620000000     0.040974   
H671     H      0.552750000000     0.102880000000     0.476870000000     0.0451713  
H672     H      0.671040000000     0.131180000000     0.384180000000     0.0409636  
H673     H      0.559710000000     0.120880000000     0.430900000000     0.0380882  
H674     H      0.687400000000     0.223060000000     0.350870000000     0.046224   
H675     H      0.586050000000     0.042190000000     0.435710000000     0.038907   
H676     H      0.682960000000     0.141270000000     0.336900000000     0.0380604  
H677     H      0.681910000000     0.178200000000     0.371530000000     0.0383701  
H678     H      0.646590000000     0.101610000000     0.416300000000     0.0444482  
H679     H      0.560760000000     0.083950000000     0.396280000000     0.0383727  
H680     H      0.658340000000     0.176820000000     0.291320000000     0.0390637  
H681     H      0.615700000000     0.346060000000     0.170290000000     0.0409325  
H682     H      0.577010000000     0.440480000000     0.138900000000     0.0347125  
H683     H      0.572370000000     0.377610000000     0.079140000000     0.0346891  
H684     H      0.714760000000     0.365250000000     0.184550000000     0.0395418  
H685     H      0.531030000000     0.439600000000     0.123190000000     0.0397605  
H686     H      0.665660000000     0.321670000000     0.128910000000     0.0347116  
H687     H      0.670300000000     0.384540000000     0.188670000000     0.0347406  
H688     H      0.695920000000     0.292090000000     0.157390000000     0.0450136  
H689     H      0.541760000000     0.406110000000     0.050530000000     0.046149   
H690     H      0.576070000000     0.368610000000     0.150840000000     0.0444972  
H691     H      0.546750000000     0.470060000000     0.110420000000     0.0450307  
H692     H      0.666600000000     0.393540000000     0.116960000000     0.0444422  
H693     H      0.589550000000     0.446910000000     0.104750000000     0.0377638  
H694     H      0.700900000000     0.356040000000     0.217280000000     0.0462395  
H695     H      0.527900000000     0.396900000000     0.083260000000     0.0395015  
H696     H      0.653120000000     0.315240000000     0.163060000000     0.0378132  
H697     H      0.656000000000     0.352010000000     0.198110000000     0.03816    
H698     H      0.626960000000     0.416100000000     0.097510000000     0.0408544  
H699     H      0.586660000000     0.410140000000     0.069690000000     0.0381028  
H700     H      0.711640000000     0.322550000000     0.144620000000     0.0397338  
H701     H      0.900810000000     0.159450000000     0.163410000000     0.044278   
H702     H      0.897430000000     0.123190000000     0.064180000000     0.0343826  
H703     H      0.896290000000     0.061540000000     0.125480000000     0.0343741  
H704     H      0.844650000000     0.223020000000     0.186830000000     0.0367703  
H705     H      0.898900000000     0.079240000000     0.041060000000     0.0368301  
H706     H      0.845240000000     0.138960000000     0.203630000000     0.034456   
H707     H      0.846370000000     0.200610000000     0.142330000000     0.0344691  
H708     H      0.812220000000     0.165830000000     0.231170000000     0.0466363  
H709     H      0.929070000000     0.033740000000     0.098770000000     0.0467175  
H710     H      0.920790000000     0.127180000000     0.130680000000     0.0412234  
H711     H      0.930440000000     0.096320000000     0.036640000000     0.0464155  
H712     H      0.821870000000     0.134970000000     0.137120000000     0.0413653  
H713     H      0.927960000000     0.116060000000     0.082710000000     0.0393094  
H714     H      0.813590000000     0.228410000000     0.169040000000     0.0468717  
H715     H      0.898020000000     0.039130000000     0.080980000000     0.0367709  
H716     H      0.814710000000     0.146090000000     0.185100000000     0.0395244  
H717     H      0.815370000000     0.182730000000     0.148740000000     0.0396711  
H718     H      0.841850000000     0.102690000000     0.104390000000     0.044306   
H719     H      0.927300000000     0.079420000000     0.119060000000     0.0394667  
H720     H      0.843770000000     0.182910000000     0.226750000000     0.0368862  
H721     H      0.919450000000     0.372480000000     0.374420000000     0.0446855  
H722     H      0.831970000000     0.379930000000     0.322020000000     0.0345172  
H723     H      0.833010000000     0.318020000000     0.382800000000     0.0345018  
H724     H      0.953460000000     0.447870000000     0.404480000000     0.042062   
H725     H      0.788400000000     0.359920000000     0.318860000000     0.0423727  
H726     H      0.910690000000     0.382220000000     0.445790000000     0.0344145  
H727     H      0.909650000000     0.444130000000     0.385010000000     0.0344256  
H728     H      0.935270000000     0.414090000000     0.477830000000     0.0449533  
H729     H      0.808560000000     0.286370000000     0.350170000000     0.0445625  
H730     H      0.885150000000     0.346580000000     0.349340000000     0.0404884  
H731     H      0.807390000000     0.348060000000     0.289970000000     0.0450355  
H732     H      0.857520000000     0.415570000000     0.418470000000     0.0405692  
H733     H      0.848710000000     0.347930000000     0.315500000000     0.0362067  
H734     H      0.934100000000     0.475780000000     0.417640000000     0.0445326  
H735     H      0.789210000000     0.314280000000     0.363330000000     0.0422926  
H736     H      0.893950000000     0.414220000000     0.452310000000     0.0362029  
H737     H      0.893290000000     0.449540000000     0.417570000000     0.0361368  
H738     H      0.823220000000     0.389660000000     0.393380000000     0.0448875  
H739     H      0.849380000000     0.312610000000     0.350240000000     0.0361144  
H740     H      0.954260000000     0.402230000000     0.448950000000     0.0420996  
H741     H      0.921030000000     0.130260000000     0.385000000000     0.0408464  
H742     H      0.842250000000     0.137610000000     0.315750000000     0.0343561  
H743     H      0.840980000000     0.198760000000     0.377440000000     0.0344345  
H744     H      0.905520000000     0.039870000000     0.433920000000     0.038154   
H745     H      0.838090000000     0.180940000000     0.292210000000     0.0376989  
H746     H      0.900420000000     0.124540000000     0.452050000000     0.0343743  
H747     H      0.901690000000     0.063380000000     0.390360000000     0.0343353  
H748     H      0.935590000000     0.099480000000     0.478590000000     0.046295   
H749     H      0.805650000000     0.224430000000     0.351520000000     0.0462805  
H750     H      0.897810000000     0.161630000000     0.353630000000     0.0442001  
H751     H      0.807070000000     0.162670000000     0.289220000000     0.0464428  
H752     H      0.844850000000     0.100510000000     0.414180000000     0.0442593  
H753     H      0.811840000000     0.143190000000     0.334990000000     0.0385648  
H754     H      0.937020000000     0.037720000000     0.416290000000     0.0460665  
H755     H      0.837150000000     0.222280000000     0.333880000000     0.03819    
H756     H      0.930820000000     0.118950000000     0.432820000000     0.0384527  
H757     H      0.931560000000     0.083150000000     0.396670000000     0.0382842  
H758     H      0.821640000000     0.131880000000     0.382810000000     0.0410107  
H759     H      0.811100000000     0.179000000000     0.371130000000     0.0384751  
H760     H      0.904570000000     0.081210000000     0.475590000000     0.0376991  
H761     H      0.574620000000     0.368220000000     0.372220000000     0.0446801  
H762     H      0.665580000000     0.322390000000     0.385720000000     0.034729   
H763     H      0.664230000000     0.382760000000     0.323310000000     0.0347571  
H764     H      0.533560000000     0.397590000000     0.444880000000     0.0406606  
H765     H      0.710050000000     0.322650000000     0.366410000000     0.0406263  
H766     H      0.577090000000     0.439750000000     0.382080000000     0.0347509  
H767     H      0.578440000000     0.379390000000     0.444500000000     0.034761   
H768     H      0.549250000000     0.470180000000     0.412140000000     0.0456034  
H769     H      0.692020000000     0.352530000000     0.292840000000     0.0450501  
H770     H      0.612100000000     0.345630000000     0.348720000000     0.0408519  
H771     H      0.693420000000     0.291960000000     0.355670000000     0.0455893  
H772     H      0.630570000000     0.416520000000     0.419090000000     0.040808   
H773     H      0.650340000000     0.314700000000     0.353030000000     0.0374345  
H774     H      0.550650000000     0.409620000000     0.474970000000     0.0450634  
H775     H      0.709110000000     0.364560000000     0.322920000000     0.0406485  
H776     H      0.592330000000     0.447440000000     0.414780000000     0.0374605  
H777     H      0.593150000000     0.412420000000     0.450960000000     0.0374276  
H778     H      0.668050000000     0.393930000000     0.395590000000     0.0447001  
H779     H      0.649520000000     0.349730000000     0.316840000000     0.0374149  
H780     H      0.532620000000     0.439500000000     0.401390000000     0.0406143  
H781     H      0.842870000000     0.410190000000     0.104080000000     0.0443477  
H782     H      0.843670000000     0.372960000000     0.202790000000     0.0344949  
H783     H      0.845020000000     0.311880000000     0.140960000000     0.0344682  
H784     H      0.900220000000     0.473420000000     0.082860000000     0.0369915  
H785     H      0.841530000000     0.329030000000     0.225730000000     0.0374966  
H786     H      0.899000000000     0.389190000000     0.065020000000     0.0344312  
H787     H      0.897650000000     0.450270000000     0.126850000000     0.0344221  
H788     H      0.932710000000     0.415960000000     0.038260000000     0.0465804  
H789     H      0.811390000000     0.284310000000     0.166920000000     0.0466609  
H790     H      0.821770000000     0.377820000000     0.135960000000     0.0412674  
H791     H      0.809960000000     0.346190000000     0.229550000000     0.0468053  
H792     H      0.920900000000     0.384330000000     0.131840000000     0.0411087  
H793     H      0.813390000000     0.366170000000     0.183720000000     0.0392982  
H794     H      0.931280000000     0.477840000000     0.100890000000     0.0465484  
H795     H      0.842450000000     0.288730000000     0.184950000000     0.0369503  
H796     H      0.929280000000     0.395980000000     0.084090000000     0.0391054  
H797     H      0.928490000000     0.432060000000     0.120590000000     0.0391563  
H798     H      0.899800000000     0.351960000000     0.163730000000     0.0442367  
H799     H      0.814180000000     0.330090000000     0.147220000000     0.039361   
H800     H      0.901130000000     0.433130000000     0.042070000000     0.0374427  
H801     H      0.617210000000     0.166520000000     0.670090000000     0.0409915  
H802     H      0.572310000000     0.136200000000     0.579050000000     0.0347384  
H803     H      0.574550000000     0.073920000000     0.639600000000     0.0347025  
H804     H      0.713960000000     0.185350000000     0.644300000000     0.0393311  
H805     H      0.527220000000     0.118360000000     0.583310000000     0.0391585  
H806     H      0.670360000000     0.125950000000     0.688760000000     0.0346864  
H807     H      0.668110000000     0.188230000000     0.628210000000     0.0347468  
H808     H      0.701870000000     0.153680000000     0.717170000000     0.046259   
H809     H      0.543140000000     0.045290000000     0.611760000000     0.0455074  
H810     H      0.576640000000     0.145710000000     0.650690000000     0.0444925  
H811     H      0.540790000000     0.108470000000     0.550640000000     0.046261   
H812     H      0.666020000000     0.116440000000     0.617110000000     0.044466   
H813     H      0.585560000000     0.103120000000     0.569950000000     0.0383379  
H814     H      0.699520000000     0.216860000000     0.656040000000     0.0456234  
H815     H      0.528700000000     0.076800000000     0.623510000000     0.0392616  
H816     H      0.657110000000     0.159030000000     0.697860000000     0.0383355  
H817     H      0.655740000000     0.195660000000     0.662220000000     0.0381908  
H818     H      0.625460000000     0.095630000000     0.597720000000     0.0409522  
H819     H      0.586920000000     0.066490000000     0.605580000000     0.0381407  
H820     H      0.715440000000     0.143790000000     0.684490000000     0.039147   
H821     H      0.596070000000     0.160540000000     0.851510000000     0.0444705  
H822     H      0.589170000000     0.127540000000     0.951290000000     0.034708   
H823     H      0.591070000000     0.064390000000     0.891690000000     0.034556   
H824     H      0.656620000000     0.219960000000     0.832100000000     0.0390325  
H825     H      0.584320000000     0.085330000000     0.976490000000     0.0391147  
H826     H      0.653490000000     0.134610000000     0.816520000000     0.0346079  
H827     H      0.651590000000     0.197760000000     0.876120000000     0.0346177  
H828     H      0.689920000000     0.159270000000     0.790940000000     0.045163   
H829     H      0.555270000000     0.039090000000     0.916930000000     0.0461165  
H830     H      0.571620000000     0.130970000000     0.883620000000     0.0409837  
H831     H      0.552750000000     0.102880000000     0.976870000000     0.0452388  
H832     H      0.671040000000     0.131180000000     0.884180000000     0.0409851  
H833     H      0.559710000000     0.120880000000     0.930910000000     0.0381298  
H834     H      0.687400000000     0.223060000000     0.850870000000     0.0462562  
H835     H      0.586050000000     0.042190000000     0.935710000000     0.0389499  
H836     H      0.682960000000     0.141270000000     0.836900000000     0.038065   
H837     H      0.681910000000     0.178200000000     0.871530000000     0.0383852  
H838     H      0.646590000000     0.101610000000     0.916300000000     0.0444928  
H839     H      0.560760000000     0.083950000000     0.896280000000     0.0383731  
H840     H      0.658340000000     0.176820000000     0.791320000000     0.0390675  
H841     H      0.615700000000     0.346060000000     0.670290000000     0.0409337  
H842     H      0.577010000000     0.440480000000     0.638900000000     0.03471    
H843     H      0.572370000000     0.377610000000     0.579140000000     0.0347439  
H844     H      0.714760000000     0.365250000000     0.684550000000     0.0395514  
H845     H      0.531030000000     0.439600000000     0.623180000000     0.0397756  
H846     H      0.665660000000     0.321670000000     0.628910000000     0.0347454  
H847     H      0.670300000000     0.384540000000     0.688670000000     0.0347331  
H848     H      0.695920000000     0.292090000000     0.657390000000     0.045029   
H849     H      0.541760000000     0.406110000000     0.550530000000     0.0462372  
H850     H      0.576070000000     0.368610000000     0.650840000000     0.0445053  
H851     H      0.546750000000     0.470060000000     0.610420000000     0.0450428  
H852     H      0.666600000000     0.393540000000     0.616960000000     0.0444687  
H853     H      0.589550000000     0.446910000000     0.604750000000     0.0377851  
H854     H      0.700900000000     0.356040000000     0.717280000000     0.04624    
H855     H      0.527900000000     0.396900000000     0.583260000000     0.0395242  
H856     H      0.653120000000     0.315240000000     0.663060000000     0.0378213  
H857     H      0.656000000000     0.352010000000     0.698120000000     0.0381374  
H858     H      0.626960000000     0.416100000000     0.597520000000     0.0409232  
H859     H      0.586660000000     0.410140000000     0.569690000000     0.0381678  
H860     H      0.711640000000     0.322550000000     0.644620000000     0.0397589  
H861     H      0.900810000000     0.159450000000     0.663410000000     0.0442793  
H862     H      0.897430000000     0.123190000000     0.564180000000     0.0344555  
H863     H      0.896290000000     0.061540000000     0.625480000000     0.0343684  
H864     H      0.844650000000     0.223020000000     0.686830000000     0.0367883  
H865     H      0.898900000000     0.079240000000     0.541060000000     0.036937   
H866     H      0.845240000000     0.138960000000     0.703630000000     0.0344583  
H867     H      0.846370000000     0.200610000000     0.642330000000     0.0344924  
H868     H      0.812220000000     0.165830000000     0.731170000000     0.0466258  
H869     H      0.929070000000     0.033740000000     0.598760000000     0.0467442  
H870     H      0.920790000000     0.127180000000     0.630680000000     0.0412375  
H871     H      0.930440000000     0.096320000000     0.536640000000     0.0465335  
H872     H      0.821870000000     0.134970000000     0.637120000000     0.041379   
H873     H      0.927960000000     0.116060000000     0.582710000000     0.0393425  
H874     H      0.813590000000     0.228410000000     0.669040000000     0.0468936  
H875     H      0.898020000000     0.039130000000     0.580980000000     0.036817   
H876     H      0.814710000000     0.146090000000     0.685100000000     0.0395309  
H877     H      0.815370000000     0.182730000000     0.648740000000     0.0396854  
H878     H      0.841850000000     0.102690000000     0.604390000000     0.04435    
H879     H      0.927300000000     0.079420000000     0.619060000000     0.0394552  
H880     H      0.843770000000     0.182910000000     0.726750000000     0.0368765  
H881     H      0.919450000000     0.372480000000     0.874420000000     0.044694   
H882     H      0.831970000000     0.379930000000     0.822020000000     0.0345168  
H883     H      0.833010000000     0.318020000000     0.882800000000     0.0345361  
H884     H      0.953460000000     0.447870000000     0.904480000000     0.0420621  
H885     H      0.788400000000     0.359920000000     0.818860000000     0.0423775  
H886     H      0.910690000000     0.382220000000     0.945790000000     0.0344778  
H887     H      0.909650000000     0.444130000000     0.885000000000     0.0344028  
H888     H      0.935270000000     0.414090000000     0.977830000000     0.0450814  
H889     H      0.808560000000     0.286370000000     0.850170000000     0.0445755  
H890     H      0.885150000000     0.346580000000     0.849340000000     0.0404916  
H891     H      0.807390000000     0.348060000000     0.789970000000     0.0450339  
H892     H      0.857520000000     0.415570000000     0.918470000000     0.0406094  
H893     H      0.848710000000     0.347930000000     0.815500000000     0.0362044  
H894     H      0.934100000000     0.475780000000     0.917640000000     0.0445479  
H895     H      0.789210000000     0.314280000000     0.863330000000     0.0423164  
H896     H      0.893950000000     0.414220000000     0.952310000000     0.0362737  
H897     H      0.893290000000     0.449540000000     0.917570000000     0.0361556  
H898     H      0.823220000000     0.389660000000     0.893380000000     0.0449178  
H899     H      0.849380000000     0.312610000000     0.850240000000     0.0361226  
H900     H      0.954260000000     0.402230000000     0.948950000000     0.042144   
H901     H      0.921030000000     0.130260000000     0.885000000000     0.0408599  
H902     H      0.842250000000     0.137610000000     0.815750000000     0.0343518  
H903     H      0.840980000000     0.198760000000     0.877440000000     0.0344655  
H904     H      0.905520000000     0.039870000000     0.933930000000     0.0382245  
H905     H      0.838090000000     0.180940000000     0.792220000000     0.0377146  
H906     H      0.900420000000     0.124540000000     0.952050000000     0.0344296  
H907     H      0.901690000000     0.063380000000     0.890360000000     0.0343363  
H908     H      0.935590000000     0.099480000000     0.978590000000     0.0464562  
H909     H      0.805650000000     0.224430000000     0.851520000000     0.0462968  
H910     H      0.897810000000     0.161630000000     0.853630000000     0.0442069  
H911     H      0.807070000000     0.162670000000     0.789220000000     0.0464507  
H912     H      0.844850000000     0.100510000000     0.914180000000     0.0443015  
H913     H      0.811840000000     0.143190000000     0.834990000000     0.0385684  
H914     H      0.937020000000     0.037720000000     0.916290000000     0.0461045  
H915     H      0.837150000000     0.222280000000     0.833880000000     0.0381944  
H916     H      0.930820000000     0.118950000000     0.932820000000     0.038462   
H917     H      0.931560000000     0.083150000000     0.896670000000     0.0382825  
H918     H      0.821640000000     0.131880000000     0.882810000000     0.0410327  
H919     H      0.811100000000     0.179000000000     0.871130000000     0.0384993  
H920     H      0.904570000000     0.081210000000     0.975590000000     0.0378623  
H921     H      0.574620000000     0.368220000000     0.872220000000     0.0446972  
H922     H      0.665580000000     0.322390000000     0.885720000000     0.034765   
H923     H      0.664230000000     0.382760000000     0.823310000000     0.0347492  
H924     H      0.533560000000     0.397590000000     0.944890000000     0.0407024  
H925     H      0.710050000000     0.322650000000     0.866410000000     0.0406563  
H926     H      0.577090000000     0.439750000000     0.882080000000     0.034752   
H927     H      0.578440000000     0.379390000000     0.944500000000     0.0348221  
H928     H      0.549250000000     0.470180000000     0.912140000000     0.0456074  
H929     H      0.692020000000     0.352530000000     0.792840000000     0.0450762  
H930     H      0.612100000000     0.345630000000     0.848710000000     0.0408251  
H931     H      0.693420000000     0.291960000000     0.855670000000     0.0456148  
H932     H      0.630570000000     0.416520000000     0.919090000000     0.0408757  
H933     H      0.650340000000     0.314700000000     0.853030000000     0.0374435  
H934     H      0.550650000000     0.409620000000     0.974970000000     0.0451734  
H935     H      0.709110000000     0.364560000000     0.822920000000     0.0406784  
H936     H      0.592330000000     0.447440000000     0.914770000000     0.0374895  
H937     H      0.593150000000     0.412420000000     0.950960000000     0.0374933  
H938     H      0.668050000000     0.393930000000     0.895580000000     0.0447373  
H939     H      0.649520000000     0.349730000000     0.816840000000     0.0374054  
H940     H      0.532620000000     0.439500000000     0.901390000000     0.0406108  
H941     H      0.842870000000     0.410190000000     0.604080000000     0.0443861  
H942     H      0.843670000000     0.372960000000     0.702790000000     0.0344927  
H943     H      0.845020000000     0.311880000000     0.640960000000     0.0344952  
H944     H      0.900220000000     0.473420000000     0.582860000000     0.0370254  
H945     H      0.841530000000     0.329030000000     0.725730000000     0.0374944  
H946     H      0.899000000000     0.389190000000     0.565020000000     0.0344961  
H947     H      0.897650000000     0.450270000000     0.626850000000     0.0344242  
H948     H      0.932710000000     0.415960000000     0.538260000000     0.0466909  
H949     H      0.811390000000     0.284310000000     0.666920000000     0.0466729  
H950     H      0.821770000000     0.377820000000     0.635960000000     0.0412849  
H951     H      0.809960000000     0.346190000000     0.729550000000     0.0468038  
H952     H      0.920900000000     0.384330000000     0.631840000000     0.0411159  
H953     H      0.813390000000     0.366170000000     0.683720000000     0.0393018  
H954     H      0.931280000000     0.477840000000     0.600890000000     0.0465495  
H955     H      0.842450000000     0.288730000000     0.684950000000     0.0369537  
H956     H      0.929280000000     0.395980000000     0.584090000000     0.0391281  
H957     H      0.928490000000     0.432060000000     0.620590000000     0.0391531  
H958     H      0.899800000000     0.351960000000     0.663730000000     0.0442406  
H959     H      0.814180000000     0.330090000000     0.647220000000     0.0393813  
H960     H      0.901130000000     0.433130000000     0.542070000000     0.0375454  
H961     H      0.617210000000     0.666520000000     0.170090000000     0.0409929  
H962     H      0.572310000000     0.636200000000     0.079050000000     0.0346908  
H963     H      0.574550000000     0.573920000000     0.139600000000     0.0347504  
H964     H      0.713960000000     0.685350000000     0.144290000000     0.0393005  
H965     H      0.527220000000     0.618370000000     0.083310000000     0.0390897  
H966     H      0.670360000000     0.625950000000     0.188760000000     0.0347164  
H967     H      0.668110000000     0.688230000000     0.128200000000     0.0346903  
H968     H      0.701870000000     0.653680000000     0.217170000000     0.0462736  
H969     H      0.543140000000     0.545290000000     0.111760000000     0.045597   
H970     H      0.576640000000     0.645710000000     0.150700000000     0.0444776  
H971     H      0.540790000000     0.608480000000     0.050640000000     0.0461257  
H972     H      0.666020000000     0.616440000000     0.117110000000     0.0444665  
H973     H      0.585560000000     0.603120000000     0.069950000000     0.0382984  
H974     H      0.699520000000     0.716860000000     0.156050000000     0.0456178  
H975     H      0.528700000000     0.576800000000     0.123510000000     0.0393086  
H976     H      0.657110000000     0.659030000000     0.197860000000     0.0383441  
H977     H      0.655740000000     0.695660000000     0.162220000000     0.0381713  
H978     H      0.625460000000     0.595630000000     0.097720000000     0.0409427  
H979     H      0.586920000000     0.566490000000     0.105580000000     0.0381659  
H980     H      0.715440000000     0.643790000000     0.184490000000     0.0391623  
H981     H      0.596070000000     0.660540000000     0.351510000000     0.0444699  
H982     H      0.589170000000     0.627540000000     0.451290000000     0.0346302  
H983     H      0.591070000000     0.564390000000     0.391690000000     0.0346103  
H984     H      0.656620000000     0.719960000000     0.332100000000     0.0390191  
H985     H      0.584320000000     0.585330000000     0.476490000000     0.0390689  
H986     H      0.653490000000     0.634620000000     0.316520000000     0.0346592  
H987     H      0.651590000000     0.697760000000     0.376110000000     0.0346081  
H988     H      0.689920000000     0.659270000000     0.290940000000     0.0451704  
H989     H      0.555270000000     0.539090000000     0.416930000000     0.0462064  
H990     H      0.571620000000     0.630970000000     0.383620000000     0.0409814  
H991     H      0.552750000000     0.602880000000     0.476870000000     0.045174   
H992     H      0.671040000000     0.631180000000     0.384180000000     0.0409809  
H993     H      0.559710000000     0.620880000000     0.430900000000     0.0380868  
H994     H      0.687400000000     0.723060000000     0.350870000000     0.0462245  
H995     H      0.586050000000     0.542190000000     0.435710000000     0.0389961  
H996     H      0.682960000000     0.641270000000     0.336900000000     0.0380909  
H997     H      0.681910000000     0.678200000000     0.371530000000     0.0383749  
H998     H      0.646590000000     0.601610000000     0.416300000000     0.0444838  
H999     H      0.560760000000     0.583950000000     0.396280000000     0.0383952  
H1000    H      0.658340000000     0.676820000000     0.291320000000     0.0390644  
H1001    H      0.615700000000     0.846050000000     0.170290000000     0.0409028  
H1002    H      0.577010000000     0.940490000000     0.138900000000     0.0347923  
H1003    H      0.572370000000     0.877610000000     0.079140000000     0.034687   
H1004    H      0.714760000000     0.865250000000     0.184550000000     0.0395622  
H1005    H      0.531030000000     0.939600000000     0.123190000000     0.0397903  
H1006    H      0.665660000000     0.821670000000     0.128910000000     0.0346988  
H1007    H      0.670300000000     0.884540000000     0.188670000000     0.0347758  
H1008    H      0.695920000000     0.792090000000     0.157390000000     0.045016   
H1009    H      0.541760000000     0.906110000000     0.050530000000     0.0461608  
H1010    H      0.576070000000     0.868610000000     0.150840000000     0.0445141  
H1011    H      0.546750000000     0.970060000000     0.110420000000     0.0451238  
H1012    H      0.666600000000     0.893540000000     0.116960000000     0.0444645  
H1013    H      0.589550000000     0.946910000000     0.104750000000     0.0378581  
H1014    H      0.700900000000     0.856040000000     0.217280000000     0.0462545  
H1015    H      0.527900000000     0.896910000000     0.083260000000     0.0395193  
H1016    H      0.653120000000     0.815240000000     0.163060000000     0.0377988  
H1017    H      0.656000000000     0.852010000000     0.198110000000     0.0381748  
H1018    H      0.626960000000     0.916100000000     0.097510000000     0.0408953  
H1019    H      0.586660000000     0.910140000000     0.069690000000     0.0381245  
H1020    H      0.711640000000     0.822550000000     0.144620000000     0.0397432  
H1021    H      0.900810000000     0.659460000000     0.163410000000     0.0442568  
H1022    H      0.897430000000     0.623190000000     0.064180000000     0.0343903  
H1023    H      0.896290000000     0.561540000000     0.125480000000     0.0344316  
H1024    H      0.844650000000     0.723020000000     0.186830000000     0.0367714  
H1025    H      0.898900000000     0.579240000000     0.041060000000     0.0368615  
H1026    H      0.845240000000     0.638960000000     0.203630000000     0.0344872  
H1027    H      0.846370000000     0.700610000000     0.142330000000     0.0344591  
H1028    H      0.812220000000     0.665830000000     0.231170000000     0.0466439  
H1029    H      0.929070000000     0.533740000000     0.098770000000     0.0468314  
H1030    H      0.920790000000     0.627180000000     0.130680000000     0.0412342  
H1031    H      0.930440000000     0.596320000000     0.036640000000     0.0464151  
H1032    H      0.821870000000     0.634970000000     0.137120000000     0.0413745  
H1033    H      0.927960000000     0.616060000000     0.082710000000     0.0393146  
H1034    H      0.813590000000     0.728410000000     0.169040000000     0.046872   
H1035    H      0.898020000000     0.539130000000     0.080980000000     0.0368767  
H1036    H      0.814710000000     0.646090000000     0.185100000000     0.0395491  
H1037    H      0.815370000000     0.682730000000     0.148740000000     0.0396639  
H1038    H      0.841850000000     0.602690000000     0.104390000000     0.0443396  
H1039    H      0.927300000000     0.579410000000     0.119060000000     0.0394853  
H1040    H      0.843770000000     0.682910000000     0.226750000000     0.0368866  
H1041    H      0.919450000000     0.872480000000     0.374420000000     0.044689   
H1042    H      0.831970000000     0.879920000000     0.322020000000     0.0345718  
H1043    H      0.833010000000     0.818020000000     0.382800000000     0.0345017  
H1044    H      0.953460000000     0.947860000000     0.404480000000     0.0420953  
H1045    H      0.788400000000     0.859920000000     0.318860000000     0.0423982  
H1046    H      0.910690000000     0.882220000000     0.445790000000     0.0344157  
H1047    H      0.909650000000     0.944130000000     0.385010000000     0.0345198  
H1048    H      0.935270000000     0.914090000000     0.477830000000     0.0449609  
H1049    H      0.808560000000     0.786370000000     0.350170000000     0.044566   
H1050    H      0.885150000000     0.846580000000     0.349340000000     0.0405218  
H1051    H      0.807390000000     0.848060000000     0.289970000000     0.0450516  
H1052    H      0.857520000000     0.915570000000     0.418470000000     0.0406053  
H1053    H      0.848710000000     0.847930000000     0.315500000000     0.0362224  
H1054    H      0.934100000000     0.975780000000     0.417640000000     0.0446421  
H1055    H      0.789210000000     0.814280000000     0.363330000000     0.0423057  
H1056    H      0.893950000000     0.914220000000     0.452310000000     0.0362293  
H1057    H      0.893290000000     0.949540000000     0.417570000000     0.036238   
H1058    H      0.823220000000     0.889670000000     0.393380000000     0.0449113  
H1059    H      0.849380000000     0.812610000000     0.350240000000     0.03611    
H1060    H      0.954260000000     0.902230000000     0.448950000000     0.0420949  
H1061    H      0.921030000000     0.630260000000     0.385000000000     0.0408594  
H1062    H      0.842250000000     0.637610000000     0.315750000000     0.0343818  
H1063    H      0.840980000000     0.698770000000     0.377440000000     0.0344173  
H1064    H      0.905520000000     0.539870000000     0.433920000000     0.0382421  
H1065    H      0.838090000000     0.680940000000     0.292210000000     0.0377014  
H1066    H      0.900420000000     0.624540000000     0.452050000000     0.0343784  
H1067    H      0.901690000000     0.563380000000     0.390360000000     0.0344002  
H1068    H      0.935590000000     0.599470000000     0.478590000000     0.0463022  
H1069    H      0.805650000000     0.724430000000     0.351520000000     0.0462817  
H1070    H      0.897810000000     0.661640000000     0.353630000000     0.0441798  
H1071    H      0.807070000000     0.662670000000     0.289220000000     0.0464551  
H1072    H      0.844850000000     0.600510000000     0.414180000000     0.0442977  
H1073    H      0.811840000000     0.643190000000     0.334990000000     0.038585   
H1074    H      0.937020000000     0.537720000000     0.416290000000     0.0461553  
H1075    H      0.837150000000     0.722280000000     0.333880000000     0.038188   
H1076    H      0.930820000000     0.618950000000     0.432820000000     0.0384505  
H1077    H      0.931560000000     0.583150000000     0.396670000000     0.0383095  
H1078    H      0.821640000000     0.631880000000     0.382810000000     0.0410259  
H1079    H      0.811100000000     0.679000000000     0.371130000000     0.0384749  
H1080    H      0.904570000000     0.581210000000     0.475590000000     0.0377275  
H1081    H      0.574620000000     0.868220000000     0.372220000000     0.044687   
H1082    H      0.665580000000     0.822390000000     0.385720000000     0.0347365  
H1083    H      0.664230000000     0.882760000000     0.323310000000     0.0347862  
H1084    H      0.533560000000     0.897590000000     0.444880000000     0.0406457  
H1085    H      0.710050000000     0.822650000000     0.366410000000     0.0406306  
H1086    H      0.577090000000     0.939750000000     0.382080000000     0.0347664  
H1087    H      0.578440000000     0.879390000000     0.444500000000     0.034766   
H1088    H      0.549250000000     0.970190000000     0.412140000000     0.0457094  
H1089    H      0.692020000000     0.852530000000     0.292840000000     0.0450795  
H1090    H      0.612100000000     0.845630000000     0.348720000000     0.0408531  
H1091    H      0.693420000000     0.791970000000     0.355670000000     0.045598   
H1092    H      0.630570000000     0.916520000000     0.419090000000     0.0408486  
H1093    H      0.650340000000     0.814710000000     0.353030000000     0.0374524  
H1094    H      0.550650000000     0.909620000000     0.474970000000     0.0450583  
H1095    H      0.709110000000     0.864560000000     0.322920000000     0.0406843  
H1096    H      0.592330000000     0.947450000000     0.414780000000     0.0374696  
H1097    H      0.593150000000     0.912420000000     0.450960000000     0.0374584  
H1098    H      0.668050000000     0.893930000000     0.395590000000     0.0447311  
H1099    H      0.649520000000     0.849730000000     0.316840000000     0.0374183  
H1100    H      0.532620000000     0.939500000000     0.401390000000     0.0406616  
H1101    H      0.842870000000     0.910190000000     0.104080000000     0.0443597  
H1102    H      0.843670000000     0.872960000000     0.202790000000     0.0345224  
H1103    H      0.845020000000     0.811880000000     0.140960000000     0.0344449  
H1104    H      0.900220000000     0.973420000000     0.082860000000     0.0370993  
H1105    H      0.841530000000     0.829020000000     0.225730000000     0.0375002  
H1106    H      0.899000000000     0.889190000000     0.065020000000     0.0344418  
H1107    H      0.897650000000     0.950270000000     0.126850000000     0.0345098  
H1108    H      0.932710000000     0.915960000000     0.038260000000     0.046559   
H1109    H      0.811390000000     0.784310000000     0.166920000000     0.046666   
H1110    H      0.821770000000     0.877820000000     0.135960000000     0.0412886  
H1111    H      0.809960000000     0.846190000000     0.229550000000     0.0468175  
H1112    H      0.920900000000     0.884330000000     0.131840000000     0.0411127  
H1113    H      0.813390000000     0.866170000000     0.183720000000     0.0393179  
H1114    H      0.931280000000     0.977840000000     0.100890000000     0.0466583  
H1115    H      0.842450000000     0.788730000000     0.184950000000     0.0369528  
H1116    H      0.929280000000     0.895980000000     0.084090000000     0.0391112  
H1117    H      0.928490000000     0.932060000000     0.120590000000     0.0391952  
H1118    H      0.899800000000     0.851960000000     0.163730000000     0.0442431  
H1119    H      0.814180000000     0.830090000000     0.147220000000     0.0393509  
H1120    H      0.901130000000     0.933120000000     0.042070000000     0.03746    
H1121    H      0.617210000000     0.666520000000     0.670090000000     0.0409935  
H1122    H      0.572310000000     0.636200000000     0.579050000000     0.0347455  
H1123    H      0.574550000000     0.573920000000     0.639600000000     0.0347513  
H1124    H      0.713960000000     0.685350000000     0.644300000000     0.0393367  
H1125    H      0.527220000000     0.618370000000     0.583310000000     0.0391185  
H1126    H      0.670360000000     0.625950000000     0.688760000000     0.034718   
H1127    H      0.668110000000     0.688230000000     0.628210000000     0.0347466  
H1128    H      0.701870000000     0.653680000000     0.717170000000     0.046274   
H1129    H      0.543140000000     0.545290000000     0.611760000000     0.0456015  
H1130    H      0.576640000000     0.645710000000     0.650690000000     0.0444987  
H1131    H      0.540790000000     0.608480000000     0.550640000000     0.0462208  
H1132    H      0.666020000000     0.616440000000     0.617110000000     0.0444944  
H1133    H      0.585560000000     0.603120000000     0.569950000000     0.0383637  
H1134    H      0.699520000000     0.716860000000     0.656040000000     0.045622   
H1135    H      0.528700000000     0.576800000000     0.623510000000     0.0393056  
H1136    H      0.657110000000     0.659030000000     0.697860000000     0.0383426  
H1137    H      0.655740000000     0.695660000000     0.662220000000     0.0381882  
H1138    H      0.625460000000     0.595630000000     0.597720000000     0.0409848  
H1139    H      0.586920000000     0.566490000000     0.605580000000     0.03819    
H1140    H      0.715440000000     0.643790000000     0.684490000000     0.0391688  
H1141    H      0.596070000000     0.660540000000     0.851510000000     0.0444742  
H1142    H      0.589170000000     0.627540000000     0.951290000000     0.0347099  
H1143    H      0.591070000000     0.564390000000     0.891690000000     0.034615   
H1144    H      0.656620000000     0.719960000000     0.832100000000     0.039031   
H1145    H      0.584320000000     0.585330000000     0.976490000000     0.0391444  
H1146    H      0.653490000000     0.634620000000     0.816520000000     0.0346568  
H1147    H      0.651590000000     0.697760000000     0.876120000000     0.0346162  
H1148    H      0.689920000000     0.659270000000     0.790940000000     0.0451737  
H1149    H      0.555270000000     0.539090000000     0.916930000000     0.046211   
H1150    H      0.571620000000     0.630970000000     0.883620000000     0.0409912  
H1151    H      0.552750000000     0.602880000000     0.976870000000     0.0452415  
H1152    H      0.671040000000     0.631180000000     0.884180000000     0.0410025  
H1153    H      0.559710000000     0.620880000000     0.930910000000     0.0381284  
H1154    H      0.687400000000     0.723060000000     0.850870000000     0.0462567  
H1155    H      0.586050000000     0.542190000000     0.935710000000     0.0390391  
H1156    H      0.682960000000     0.641270000000     0.836900000000     0.0380955  
H1157    H      0.681910000000     0.678200000000     0.871530000000     0.03839    
H1158    H      0.646590000000     0.601610000000     0.916300000000     0.0445284  
H1159    H      0.560760000000     0.583950000000     0.896280000000     0.0383956  
H1160    H      0.658340000000     0.676820000000     0.791320000000     0.0390682  
H1161    H      0.615700000000     0.846050000000     0.670290000000     0.0409041  
H1162    H      0.577010000000     0.940490000000     0.638900000000     0.0347898  
H1163    H      0.572370000000     0.877610000000     0.579140000000     0.0347419  
H1164    H      0.714760000000     0.865250000000     0.684550000000     0.0395718  
H1165    H      0.531030000000     0.939600000000     0.623180000000     0.0398055  
H1166    H      0.665660000000     0.821670000000     0.628910000000     0.0347326  
H1167    H      0.670300000000     0.884540000000     0.688670000000     0.0347683  
H1168    H      0.695920000000     0.792090000000     0.657390000000     0.0450314  
H1169    H      0.541760000000     0.906110000000     0.550530000000     0.046249   
H1170    H      0.576070000000     0.868610000000     0.650840000000     0.0445223  
H1171    H      0.546750000000     0.970060000000     0.610420000000     0.0451361  
H1172    H      0.666600000000     0.893540000000     0.616960000000     0.0444911  
H1173    H      0.589550000000     0.946910000000     0.604750000000     0.0378794  
H1174    H      0.700900000000     0.856040000000     0.717280000000     0.0462551  
H1175    H      0.527900000000     0.896910000000     0.583260000000     0.039542   
H1176    H      0.653120000000     0.815240000000     0.663060000000     0.037807   
H1177    H      0.656000000000     0.852010000000     0.698120000000     0.0381522  
H1178    H      0.626960000000     0.916100000000     0.597520000000     0.0409641  
H1179    H      0.586660000000     0.910140000000     0.569690000000     0.0381895  
H1180    H      0.711640000000     0.822550000000     0.644620000000     0.0397683  
H1181    H      0.900810000000     0.659460000000     0.663410000000     0.0442581  
H1182    H      0.897430000000     0.623190000000     0.564180000000     0.0344633  
H1183    H      0.896290000000     0.561540000000     0.625480000000     0.034426   
H1184    H      0.844650000000     0.723020000000     0.686830000000     0.0367894  
H1185    H      0.898900000000     0.579240000000     0.541060000000     0.0369686  
H1186    H      0.845240000000     0.638960000000     0.703630000000     0.0344896  
H1187    H      0.846370000000     0.700610000000     0.642330000000     0.0344824  
H1188    H      0.812220000000     0.665830000000     0.731170000000     0.0466334  
H1189    H      0.929070000000     0.533740000000     0.598760000000     0.0468583  
H1190    H      0.920790000000     0.627180000000     0.630680000000     0.0412483  
H1191    H      0.930440000000     0.596320000000     0.536640000000     0.0465332  
H1192    H      0.821870000000     0.634970000000     0.637120000000     0.0413883  
H1193    H      0.927960000000     0.616060000000     0.582710000000     0.0393478  
H1194    H      0.813590000000     0.728410000000     0.669040000000     0.046894   
H1195    H      0.898020000000     0.539130000000     0.580980000000     0.0369231  
H1196    H      0.814710000000     0.646090000000     0.685100000000     0.0395557  
H1197    H      0.815370000000     0.682730000000     0.648740000000     0.0396782  
H1198    H      0.841850000000     0.602690000000     0.604390000000     0.0443838  
H1199    H      0.927300000000     0.579410000000     0.619060000000     0.0394738  
H1200    H      0.843770000000     0.682910000000     0.726750000000     0.0368769  
H1201    H      0.919450000000     0.872480000000     0.874420000000     0.0446976  
H1202    H      0.831970000000     0.879920000000     0.822020000000     0.0345714  
H1203    H      0.833010000000     0.818020000000     0.882800000000     0.034536   
H1204    H      0.953460000000     0.947860000000     0.904480000000     0.0420954  
H1205    H      0.788400000000     0.859920000000     0.818860000000     0.0424029  
H1206    H      0.910690000000     0.882220000000     0.945790000000     0.0344789  
H1207    H      0.909650000000     0.944130000000     0.885000000000     0.0344969  
H1208    H      0.935270000000     0.914090000000     0.977830000000     0.0450889  
H1209    H      0.808560000000     0.786370000000     0.850170000000     0.044579   
H1210    H      0.885150000000     0.846580000000     0.849340000000     0.040525   
H1211    H      0.807390000000     0.848060000000     0.789970000000     0.04505    
H1212    H      0.857520000000     0.915570000000     0.918470000000     0.0406455  
H1213    H      0.848710000000     0.847930000000     0.815500000000     0.0362201  
H1214    H      0.934100000000     0.975780000000     0.917640000000     0.0446573  
H1215    H      0.789210000000     0.814280000000     0.863330000000     0.0423294  
H1216    H      0.893950000000     0.914220000000     0.952310000000     0.0363     
H1217    H      0.893290000000     0.949540000000     0.917570000000     0.0362567  
H1218    H      0.823220000000     0.889670000000     0.893380000000     0.0449416  
H1219    H      0.849380000000     0.812610000000     0.850240000000     0.0361182  
H1220    H      0.954260000000     0.902230000000     0.948950000000     0.0421393  
H1221    H      0.921030000000     0.630260000000     0.885000000000     0.0408729  
H1222    H      0.842250000000     0.637610000000     0.815750000000     0.0343776  
H1223    H      0.840980000000     0.698770000000     0.877440000000     0.0344484  
H1224    H      0.905520000000     0.539870000000     0.933930000000     0.0383128  
H1225    H      0.838090000000     0.680940000000     0.792220000000     0.0377171  
H1226    H      0.900420000000     0.624540000000     0.952050000000     0.0344337  
H1227    H      0.901690000000     0.563380000000     0.890360000000     0.0344013  
H1228    H      0.935590000000     0.599470000000     0.978590000000     0.0464635  
H1229    H      0.805650000000     0.724430000000     0.851520000000     0.046298   
H1230    H      0.897810000000     0.661640000000     0.853630000000     0.0441866  
H1231    H      0.807070000000     0.662670000000     0.789220000000     0.0464631  
H1232    H      0.844850000000     0.600510000000     0.914180000000     0.0443399  
H1233    H      0.811840000000     0.643190000000     0.834990000000     0.0385886  
H1234    H      0.937020000000     0.537720000000     0.916290000000     0.0461934  
H1235    H      0.837150000000     0.722280000000     0.833880000000     0.0381924  
H1236    H      0.930820000000     0.618950000000     0.932820000000     0.0384598  
H1237    H      0.931560000000     0.583150000000     0.896670000000     0.0383078  
H1238    H      0.821640000000     0.631880000000     0.882810000000     0.0410479  
H1239    H      0.811100000000     0.679000000000     0.871130000000     0.0384992  
H1240    H      0.904570000000     0.581210000000     0.975590000000     0.0378909  
H1241    H      0.574620000000     0.868220000000     0.872220000000     0.0447042  
H1242    H      0.665580000000     0.822390000000     0.885720000000     0.0347725  
H1243    H      0.664230000000     0.882760000000     0.823310000000     0.0347783  
H1244    H      0.533560000000     0.897590000000     0.944890000000     0.0406875  
H1245    H      0.710050000000     0.822650000000     0.866410000000     0.0406606  
H1246    H      0.577090000000     0.939750000000     0.882080000000     0.0347675  
H1247    H      0.578440000000     0.879390000000     0.944500000000     0.0348271  
H1248    H      0.549250000000     0.970190000000     0.912140000000     0.0457134  
H1249    H      0.692020000000     0.852530000000     0.792840000000     0.0451057  
H1250    H      0.612100000000     0.845630000000     0.848710000000     0.0408264  
H1251    H      0.693420000000     0.791970000000     0.855670000000     0.0456236  
H1252    H      0.630570000000     0.916520000000     0.919090000000     0.0409163  
H1253    H      0.650340000000     0.814710000000     0.853030000000     0.0374613  
H1254    H      0.550650000000     0.909620000000     0.974970000000     0.0451683  
H1255    H      0.709110000000     0.864560000000     0.822920000000     0.0407142  
H1256    H      0.592330000000     0.947450000000     0.914770000000     0.0374984  
H1257    H      0.593150000000     0.912420000000     0.950960000000     0.0375241  
H1258    H      0.668050000000     0.893930000000     0.895580000000     0.0447682  
H1259    H      0.649520000000     0.849730000000     0.816840000000     0.0374088  
H1260    H      0.532620000000     0.939500000000     0.901390000000     0.0406582  
H1261    H      0.842870000000     0.910190000000     0.604080000000     0.0443983  
H1262    H      0.843670000000     0.872960000000     0.702790000000     0.0345203  
H1263    H      0.845020000000     0.811880000000     0.640960000000     0.034472   
H1264    H      0.900220000000     0.973420000000     0.582860000000     0.0371333  
H1265    H      0.841530000000     0.829020000000     0.725730000000     0.037498   
H1266    H      0.899000000000     0.889190000000     0.565020000000     0.0345066  
H1267    H      0.897650000000     0.950270000000     0.626850000000     0.0345121  
H1268    H      0.932710000000     0.915960000000     0.538260000000     0.0466694  
H1269    H      0.811390000000     0.784310000000     0.666920000000     0.046678   
H1270    H      0.821770000000     0.877820000000     0.635960000000     0.0413061  
H1271    H      0.809960000000     0.846190000000     0.729550000000     0.046816   
H1272    H      0.920900000000     0.884330000000     0.631840000000     0.0411199  
H1273    H      0.813390000000     0.866170000000     0.683720000000     0.0393216  
H1274    H      0.931280000000     0.977840000000     0.600890000000     0.0466595  
H1275    H      0.842450000000     0.788730000000     0.684950000000     0.0369562  
H1276    H      0.929280000000     0.895980000000     0.584090000000     0.0391339  
H1277    H      0.928490000000     0.932060000000     0.620590000000     0.0391921  
H1278    H      0.899800000000     0.851960000000     0.663730000000     0.0442469  
H1279    H      0.814180000000     0.830090000000     0.647220000000     0.0393712  
H1280    H      0.901130000000     0.933120000000     0.542070000000     0.0375628  
N1       N      0.036950000000     0.076390000000     0.080920000000    -0.164634   
N2       N      0.073620000000     0.107600000000     0.111970000000    -0.113922   
N3       N      0.169040000000     0.154550000000     0.155840000000    -0.113986   
N4       N      0.205720000000     0.185760000000     0.186890000000    -0.164756   
N5       N      0.054850000000     0.066930000000     0.451380000000    -0.164824   
N6       N      0.093870000000     0.096160000000     0.421400000000    -0.113858   
N7       N      0.148800000000     0.165990000000     0.346410000000    -0.113858   
N8       N      0.187810000000     0.195220000000     0.316430000000    -0.164882   
N9       N      0.038800000000     0.438560000000     0.080510000000    -0.164651   
N10      N      0.074650000000     0.406480000000     0.111750000000    -0.113853   
N11      N      0.168020000000     0.355680000000     0.156060000000    -0.113878   
N12      N      0.203870000000     0.323590000000     0.187300000000    -0.164862   
N13      N      0.430230000000     0.061940000000     0.064550000000    -0.162768   
N14      N      0.393590000000     0.093210000000     0.095620000000    -0.114108   
N15      N      0.349070000000     0.168940000000     0.172180000000    -0.114098   
N16      N      0.312430000000     0.200210000000     0.203250000000    -0.162813   
N17      N      0.299340000000     0.318250000000     0.321340000000    -0.163378   
N18      N      0.330810000000     0.351710000000     0.355270000000    -0.113448   
N19      N      0.411860000000     0.410440000000     0.412540000000    -0.113446   
N20      N      0.443320000000     0.443900000000     0.446470000000    -0.163269   
N21      N      0.306890000000     0.197570000000     0.316380000000    -0.162872   
N22      N      0.345270000000     0.167860000000     0.347010000000    -0.113942   
N23      N      0.397400000000     0.094290000000     0.420790000000    -0.113926   
N24      N      0.435770000000     0.064580000000     0.451430000000    -0.16291    
N25      N      0.199340000000     0.322570000000     0.324390000000    -0.164116   
N26      N      0.165560000000     0.355380000000     0.357230000000    -0.113646   
N27      N      0.077110000000     0.406770000000     0.410580000000    -0.113597   
N28      N      0.043330000000     0.439590000000     0.443420000000    -0.164001   
N29      N      0.310570000000     0.311820000000     0.201670000000    -0.16307    
N30      N      0.347760000000     0.343110000000     0.171260000000    -0.114034   
N31      N      0.394900000000     0.419040000000     0.096550000000    -0.114072   
N32      N      0.432100000000     0.450330000000     0.066140000000    -0.16318    
N33      N      0.036950000000     0.076390000000     0.580920000000    -0.164624   
N34      N      0.073620000000     0.107600000000     0.611970000000    -0.113921   
N35      N      0.169040000000     0.154550000000     0.655840000000    -0.113976   
N36      N      0.205720000000     0.185760000000     0.686890000000    -0.164753   
N37      N      0.054850000000     0.066930000000     0.951380000000    -0.164814   
N38      N      0.093870000000     0.096160000000     0.921400000000    -0.113839   
N39      N      0.148800000000     0.165990000000     0.846410000000    -0.113862   
N40      N      0.187810000000     0.195220000000     0.816430000000    -0.164809   
N41      N      0.038800000000     0.438560000000     0.580510000000    -0.164678   
N42      N      0.074650000000     0.406480000000     0.611750000000    -0.113854   
N43      N      0.168020000000     0.355680000000     0.656060000000    -0.113874   
N44      N      0.203870000000     0.323590000000     0.687300000000    -0.164859   
N45      N      0.430230000000     0.061940000000     0.564550000000    -0.162744   
N46      N      0.393590000000     0.093210000000     0.595630000000    -0.114118   
N47      N      0.349070000000     0.168940000000     0.672180000000    -0.114095   
N48      N      0.312430000000     0.200210000000     0.703260000000    -0.16285    
N49      N      0.299340000000     0.318250000000     0.821340000000    -0.163375   
N50      N      0.330810000000     0.351710000000     0.855270000000    -0.113443   
N51      N      0.411860000000     0.410440000000     0.912540000000    -0.113449   
N52      N      0.443320000000     0.443900000000     0.946470000000    -0.163241   
N53      N      0.306890000000     0.197570000000     0.816380000000    -0.162866   
N54      N      0.345270000000     0.167860000000     0.847010000000    -0.113943   
N55      N      0.397400000000     0.094290000000     0.920800000000    -0.113913   
N56      N      0.435770000000     0.064580000000     0.951430000000    -0.162816   
N57      N      0.199340000000     0.322570000000     0.824390000000    -0.164071   
N58      N      0.165560000000     0.355380000000     0.857230000000    -0.113642   
N59      N      0.077110000000     0.406770000000     0.910580000000    -0.113594   
N60      N      0.043330000000     0.439590000000     0.943420000000    -0.163976   
N61      N      0.310570000000     0.311820000000     0.701670000000    -0.16307    
N62      N      0.347760000000     0.343110000000     0.671260000000    -0.114033   
N63      N      0.394900000000     0.419040000000     0.596550000000    -0.114064   
N64      N      0.432100000000     0.450330000000     0.566140000000    -0.163162   
N65      N      0.036950000000     0.576400000000     0.080920000000    -0.164579   
N66      N      0.073620000000     0.607600000000     0.111970000000    -0.113915   
N67      N      0.169040000000     0.654550000000     0.155840000000    -0.113981   
N68      N      0.205720000000     0.685760000000     0.186890000000    -0.164755   
N69      N      0.054850000000     0.566930000000     0.451380000000    -0.164809   
N70      N      0.093870000000     0.596160000000     0.421400000000    -0.11385    
N71      N      0.148800000000     0.665990000000     0.346410000000    -0.113852   
N72      N      0.187810000000     0.695220000000     0.316430000000    -0.164883   
N73      N      0.038800000000     0.938560000000     0.080510000000    -0.164632   
N74      N      0.074650000000     0.906480000000     0.111750000000    -0.11384    
N75      N      0.168020000000     0.855670000000     0.156060000000    -0.113864   
N76      N      0.203870000000     0.823590000000     0.187300000000    -0.164858   
N77      N      0.430230000000     0.561940000000     0.064550000000    -0.162749   
N78      N      0.393590000000     0.593200000000     0.095620000000    -0.114082   
N79      N      0.349070000000     0.668950000000     0.172180000000    -0.114078   
N80      N      0.312430000000     0.700210000000     0.203250000000    -0.162813   
N81      N      0.299340000000     0.818250000000     0.321340000000    -0.163307   
N82      N      0.330810000000     0.851710000000     0.355270000000    -0.113442   
N83      N      0.411860000000     0.910440000000     0.412540000000    -0.11343    
N84      N      0.443320000000     0.943900000000     0.446470000000    -0.163253   
N85      N      0.306890000000     0.697570000000     0.316380000000    -0.16287    
N86      N      0.345270000000     0.667860000000     0.347010000000    -0.11394    
N87      N      0.397400000000     0.594290000000     0.420790000000    -0.113917   
N88      N      0.435770000000     0.564570000000     0.451430000000    -0.162944   
N89      N      0.199340000000     0.822560000000     0.324390000000    -0.164157   
N90      N      0.165560000000     0.855380000000     0.357230000000    -0.113641   
N91      N      0.077110000000     0.906770000000     0.410580000000    -0.113608   
N92      N      0.043330000000     0.939580000000     0.443420000000    -0.16393    
N93      N      0.310570000000     0.811820000000     0.201670000000    -0.163068   
N94      N      0.347760000000     0.843110000000     0.171260000000    -0.11404    
N95      N      0.394900000000     0.919040000000     0.096550000000    -0.114049   
N96      N      0.432100000000     0.950330000000     0.066140000000    -0.163166   
N97      N      0.036950000000     0.576400000000     0.580920000000    -0.164568   
N98      N      0.073620000000     0.607600000000     0.611970000000    -0.113915   
N99      N      0.169040000000     0.654550000000     0.655840000000    -0.113972   
N100     N      0.205720000000     0.685760000000     0.686890000000    -0.164752   
N101     N      0.054850000000     0.566930000000     0.951380000000    -0.1648     
N102     N      0.093870000000     0.596160000000     0.921400000000    -0.113832   
N103     N      0.148800000000     0.665990000000     0.846410000000    -0.113856   
N104     N      0.187810000000     0.695220000000     0.816430000000    -0.16481    
N105     N      0.038800000000     0.938560000000     0.580510000000    -0.164659   
N106     N      0.074650000000     0.906480000000     0.611750000000    -0.113842   
N107     N      0.168020000000     0.855670000000     0.656060000000    -0.11386    
N108     N      0.203870000000     0.823590000000     0.687300000000    -0.164855   
N109     N      0.430230000000     0.561940000000     0.564550000000    -0.162725   
N110     N      0.393590000000     0.593200000000     0.595630000000    -0.114092   
N111     N      0.349070000000     0.668950000000     0.672180000000    -0.114075   
N112     N      0.312430000000     0.700210000000     0.703260000000    -0.16285    
N113     N      0.299340000000     0.818250000000     0.821340000000    -0.163305   
N114     N      0.330810000000     0.851710000000     0.855270000000    -0.113437   
N115     N      0.411860000000     0.910440000000     0.912540000000    -0.113433   
N116     N      0.443320000000     0.943900000000     0.946470000000    -0.163224   
N117     N      0.306890000000     0.697570000000     0.816380000000    -0.162865   
N118     N      0.345270000000     0.667860000000     0.847010000000    -0.113941   
N119     N      0.397400000000     0.594290000000     0.920800000000    -0.113903   
N120     N      0.435770000000     0.564570000000     0.951430000000    -0.16285    
N121     N      0.199340000000     0.822560000000     0.824390000000    -0.164112   
N122     N      0.165560000000     0.855380000000     0.857230000000    -0.113637   
N123     N      0.077110000000     0.906770000000     0.910580000000    -0.113605   
N124     N      0.043330000000     0.939580000000     0.943420000000    -0.163905   
N125     N      0.310570000000     0.811820000000     0.701670000000    -0.163068   
N126     N      0.347760000000     0.843110000000     0.671260000000    -0.114038   
N127     N      0.394900000000     0.919040000000     0.596550000000    -0.114041   
N128     N      0.432100000000     0.950330000000     0.566140000000    -0.163148   
N129     N      0.536950000000     0.076390000000     0.080920000000    -0.164771   
N130     N      0.573620000000     0.107600000000     0.111970000000    -0.113954   
N131     N      0.669040000000     0.154550000000     0.155840000000    -0.113993   
N132     N      0.705720000000     0.185760000000     0.186890000000    -0.164755   
N133     N      0.554850000000     0.066930000000     0.451380000000    -0.164927   
N134     N      0.593870000000     0.096160000000     0.421400000000    -0.113872   
N135     N      0.648800000000     0.165990000000     0.346410000000    -0.113872   
N136     N      0.687810000000     0.195220000000     0.316430000000    -0.164879   
N137     N      0.538800000000     0.438560000000     0.080510000000    -0.164788   
N138     N      0.574650000000     0.406480000000     0.111750000000    -0.113888   
N139     N      0.668020000000     0.355680000000     0.156060000000    -0.113881   
N140     N      0.703870000000     0.323590000000     0.187300000000    -0.164855   
N141     N      0.930230000000     0.061940000000     0.064550000000    -0.16276    
N142     N      0.893590000000     0.093210000000     0.095620000000    -0.114118   
N143     N      0.849070000000     0.168940000000     0.172180000000    -0.114118   
N144     N      0.812430000000     0.200210000000     0.203250000000    -0.162815   
N145     N      0.799340000000     0.318250000000     0.321340000000    -0.163331   
N146     N      0.830810000000     0.351710000000     0.355270000000    -0.113454   
N147     N      0.911860000000     0.410440000000     0.412540000000    -0.113505   
N148     N      0.943330000000     0.443900000000     0.446470000000    -0.163356   
N149     N      0.806890000000     0.197570000000     0.316380000000    -0.162874   
N150     N      0.845270000000     0.167860000000     0.347010000000    -0.113959   
N151     N      0.897400000000     0.094290000000     0.420790000000    -0.113928   
N152     N      0.935780000000     0.064580000000     0.451430000000    -0.162984   
N153     N      0.699340000000     0.322570000000     0.324390000000    -0.164117   
N154     N      0.665560000000     0.355380000000     0.357230000000    -0.113651   
N155     N      0.577100000000     0.406770000000     0.410580000000    -0.113617   
N156     N      0.543330000000     0.439590000000     0.443420000000    -0.164134   
N157     N      0.810570000000     0.311820000000     0.201670000000    -0.163069   
N158     N      0.847760000000     0.343110000000     0.171260000000    -0.114052   
N159     N      0.894900000000     0.419040000000     0.096550000000    -0.114076   
N160     N      0.932100000000     0.450330000000     0.066140000000    -0.163183   
N161     N      0.536950000000     0.076390000000     0.580920000000    -0.164761   
N162     N      0.573620000000     0.107600000000     0.611970000000    -0.113954   
N163     N      0.669040000000     0.154550000000     0.655840000000    -0.113984   
N164     N      0.705720000000     0.185760000000     0.686890000000    -0.164752   
N165     N      0.554850000000     0.066930000000     0.951380000000    -0.164917   
N166     N      0.593870000000     0.096160000000     0.921400000000    -0.113854   
N167     N      0.648800000000     0.165990000000     0.846410000000    -0.113876   
N168     N      0.687810000000     0.195220000000     0.816430000000    -0.164806   
N169     N      0.538800000000     0.438560000000     0.580510000000    -0.164816   
N170     N      0.574650000000     0.406480000000     0.611750000000    -0.113889   
N171     N      0.668020000000     0.355680000000     0.656060000000    -0.113878   
N172     N      0.703870000000     0.323590000000     0.687300000000    -0.164852   
N173     N      0.930230000000     0.061940000000     0.564550000000    -0.162736   
N174     N      0.893590000000     0.093210000000     0.595630000000    -0.114128   
N175     N      0.849070000000     0.168940000000     0.672180000000    -0.114116   
N176     N      0.812430000000     0.200210000000     0.703260000000    -0.162851   
N177     N      0.799340000000     0.318250000000     0.821340000000    -0.163328   
N178     N      0.830810000000     0.351710000000     0.855270000000    -0.113449   
N179     N      0.911860000000     0.410440000000     0.912540000000    -0.113508   
N180     N      0.943330000000     0.443900000000     0.946470000000    -0.163328   
N181     N      0.806890000000     0.197570000000     0.816380000000    -0.162868   
N182     N      0.845270000000     0.167860000000     0.847010000000    -0.113959   
N183     N      0.897400000000     0.094290000000     0.920800000000    -0.113915   
N184     N      0.935780000000     0.064580000000     0.951430000000    -0.16289    
N185     N      0.699340000000     0.322570000000     0.824390000000    -0.164071   
N186     N      0.665560000000     0.355380000000     0.857230000000    -0.113647   
N187     N      0.577100000000     0.406770000000     0.910580000000    -0.113613   
N188     N      0.543330000000     0.439590000000     0.943420000000    -0.164109   
N189     N      0.810570000000     0.311820000000     0.701670000000    -0.163069   
N190     N      0.847760000000     0.343110000000     0.671260000000    -0.114051   
N191     N      0.894900000000     0.419040000000     0.596550000000    -0.114068   
N192     N      0.932100000000     0.450330000000     0.566140000000    -0.163166   
N193     N      0.536950000000     0.576400000000     0.080920000000    -0.164716   
N194     N      0.573620000000     0.607600000000     0.111970000000    -0.113948   
N195     N      0.669040000000     0.654550000000     0.155840000000    -0.113988   
N196     N      0.705720000000     0.685760000000     0.186890000000    -0.164754   
N197     N      0.554850000000     0.566930000000     0.451380000000    -0.164912   
N198     N      0.593870000000     0.596160000000     0.421400000000    -0.113864   
N199     N      0.648800000000     0.665990000000     0.346410000000    -0.113866   
N200     N      0.687810000000     0.695220000000     0.316430000000    -0.164879   
N201     N      0.538800000000     0.938560000000     0.080510000000    -0.164769   
N202     N      0.574650000000     0.906480000000     0.111750000000    -0.113875   
N203     N      0.668020000000     0.855670000000     0.156060000000    -0.113867   
N204     N      0.703870000000     0.823590000000     0.187300000000    -0.164851   
N205     N      0.930230000000     0.561940000000     0.064550000000    -0.162741   
N206     N      0.893590000000     0.593200000000     0.095620000000    -0.114092   
N207     N      0.849070000000     0.668950000000     0.172180000000    -0.114099   
N208     N      0.812430000000     0.700210000000     0.203250000000    -0.162815   
N209     N      0.799340000000     0.818250000000     0.321340000000    -0.16326    
N210     N      0.830810000000     0.851710000000     0.355270000000    -0.113448   
N211     N      0.911860000000     0.910440000000     0.412540000000    -0.113488   
N212     N      0.943330000000     0.943900000000     0.446470000000    -0.16334    
N213     N      0.806890000000     0.697570000000     0.316380000000    -0.162873   
N214     N      0.845270000000     0.667860000000     0.347010000000    -0.113957   
N215     N      0.897400000000     0.594290000000     0.420790000000    -0.113918   
N216     N      0.935780000000     0.564570000000     0.451430000000    -0.163017   
N217     N      0.699340000000     0.822560000000     0.324390000000    -0.164158   
N218     N      0.665560000000     0.855380000000     0.357230000000    -0.113645   
N219     N      0.577100000000     0.906770000000     0.410580000000    -0.113627   
N220     N      0.543330000000     0.939580000000     0.443420000000    -0.164062   
N221     N      0.810570000000     0.811820000000     0.201670000000    -0.163068   
N222     N      0.847760000000     0.843110000000     0.171260000000    -0.114058   
N223     N      0.894900000000     0.919040000000     0.096550000000    -0.114053   
N224     N      0.932100000000     0.950330000000     0.066140000000    -0.163169   
N225     N      0.536950000000     0.576400000000     0.580920000000    -0.164706   
N226     N      0.573620000000     0.607600000000     0.611970000000    -0.113947   
N227     N      0.669040000000     0.654550000000     0.655840000000    -0.113979   
N228     N      0.705720000000     0.685760000000     0.686890000000    -0.164751   
N229     N      0.554850000000     0.566930000000     0.951380000000    -0.164902   
N230     N      0.593870000000     0.596160000000     0.921400000000    -0.113846   
N231     N      0.648800000000     0.665990000000     0.846410000000    -0.11387    
N232     N      0.687810000000     0.695220000000     0.816430000000    -0.164806   
N233     N      0.538800000000     0.938560000000     0.580510000000    -0.164796   
N234     N      0.574650000000     0.906480000000     0.611750000000    -0.113877   
N235     N      0.668020000000     0.855670000000     0.656060000000    -0.113864   
N236     N      0.703870000000     0.823590000000     0.687300000000    -0.164848   
N237     N      0.930230000000     0.561940000000     0.564550000000    -0.162717   
N238     N      0.893590000000     0.593200000000     0.595630000000    -0.114102   
N239     N      0.849070000000     0.668950000000     0.672180000000    -0.114096   
N240     N      0.812430000000     0.700210000000     0.703260000000    -0.162851   
N241     N      0.799340000000     0.818250000000     0.821340000000    -0.163258   
N242     N      0.830810000000     0.851710000000     0.855270000000    -0.113443   
N243     N      0.911860000000     0.910440000000     0.912540000000    -0.113491   
N244     N      0.943330000000     0.943900000000     0.946470000000    -0.163311   
N245     N      0.806890000000     0.697570000000     0.816380000000    -0.162867   
N246     N      0.845270000000     0.667860000000     0.847010000000    -0.113958   
N247     N      0.897400000000     0.594290000000     0.920800000000    -0.113905   
N248     N      0.935780000000     0.564570000000     0.951430000000    -0.162924   
N249     N      0.699340000000     0.822560000000     0.824390000000    -0.164112   
N250     N      0.665560000000     0.855380000000     0.857230000000    -0.113641   
N251     N      0.577100000000     0.906770000000     0.910580000000    -0.113624   
N252     N      0.543330000000     0.939580000000     0.943420000000    -0.164037   
N253     N      0.810570000000     0.811820000000     0.701670000000    -0.163068   
N254     N      0.847760000000     0.843110000000     0.671260000000    -0.114056   
N255     N      0.894900000000     0.919040000000     0.596550000000    -0.114045   
N256     N      0.932100000000     0.950330000000     0.566140000000    -0.163151   
O1       O      0.017860000000     0.479300000000     0.071610000000    -0.367735   
O2       O      0.025310000000     0.031420000000     0.454560000000    -0.369575   
O3       O      0.020690000000     0.447650000000     0.483560000000    -0.36325    
O4       O      0.016100000000     0.068010000000     0.039940000000    -0.365886   
O5       O      0.020140000000     0.479250000000     0.450720000000    -0.359821   
O6       O      0.016690000000     0.035410000000     0.071780000000    -0.368275   
O7       O      0.024760000000     0.063600000000     0.486790000000    -0.368798   
O8       O      0.017130000000     0.446560000000     0.039950000000    -0.368839   
O9       O      0.462670000000     0.028930000000     0.064270000000    -0.361123   
O10      O      0.468750000000     0.482240000000     0.453020000000    -0.362342   
O11      O      0.464140000000     0.452530000000     0.032550000000    -0.36594    
O12      O      0.466070000000     0.062410000000     0.486660000000    -0.364629   
O13      O      0.466400000000     0.029840000000     0.454830000000    -0.369663   
O14      O      0.463650000000     0.484220000000     0.065260000000    -0.360819   
O15      O      0.462990000000     0.060740000000     0.031640000000    -0.361048   
O16      O      0.469190000000     0.449520000000     0.484760000000    -0.362569   
O17      O      0.007520000000     0.507010000000     0.011190000000    -0.584115   
O18      O      0.279010000000     0.277930000000     0.202540000000    -0.360704   
O19      O      0.276270000000     0.232310000000     0.312980000000    -0.369678   
O20      O      0.273480000000     0.312620000000     0.283040000000    -0.362613   
O21      O      0.279680000000     0.201410000000     0.236160000000    -0.360971   
O22      O      0.273910000000     0.279910000000     0.314780000000    -0.362458   
O23      O      0.279990000000     0.233220000000     0.203540000000    -0.361055   
O24      O      0.276600000000     0.199740000000     0.281150000000    -0.364793   
O25      O      0.278530000000     0.309620000000     0.235260000000    -0.365871   
O26      O      0.225980000000     0.226740000000     0.196020000000    -0.369214   
O27      O      0.222530000000     0.282900000000     0.317080000000    -0.360934   
O28      O      0.225540000000     0.315590000000     0.227860000000    -0.369679   
O29      O      0.217900000000     0.198550000000     0.281020000000    -0.369775   
O30      O      0.217350000000     0.230730000000     0.313240000000    -0.370628   
O31      O      0.224810000000     0.282850000000     0.196200000000    -0.368767   
O32      O      0.226570000000     0.194140000000     0.227870000000    -0.36672    
O33      O      0.221980000000     0.314500000000     0.284250000000    -0.364267   
O34      O      0.235140000000     0.255140000000     0.256610000000    -0.586227   
O35      O      0.017860000000     0.479300000000     0.571610000000    -0.367746   
O36      O      0.025310000000     0.031420000000     0.954560000000    -0.369554   
O37      O      0.020690000000     0.447650000000     0.983560000000    -0.362929   
O38      O      0.016100000000     0.068010000000     0.539940000000    -0.365857   
O39      O      0.020140000000     0.479250000000     0.950720000000    -0.359809   
O40      O      0.016690000000     0.035410000000     0.571780000000    -0.36827    
O41      O      0.024760000000     0.063600000000     0.986790000000    -0.368462   
O42      O      0.017130000000     0.446560000000     0.539950000000    -0.368682   
O43      O      0.462670000000     0.028930000000     0.564270000000    -0.361118   
O44      O      0.468750000000     0.482240000000     0.953020000000    -0.362332   
O45      O      0.464140000000     0.452530000000     0.532550000000    -0.365878   
O46      O      0.466070000000     0.062410000000     0.986660000000    -0.364245   
O47      O      0.466400000000     0.029840000000     0.954820000000    -0.369515   
O48      O      0.463650000000     0.484220000000     0.565260000000    -0.360814   
O49      O      0.462990000000     0.060740000000     0.531640000000    -0.360972   
O50      O      0.469190000000     0.449520000000     0.984760000000    -0.362235   
O51      O      0.007520000000     0.507010000000     0.511190000000    -0.583972   
O52      O      0.279010000000     0.277930000000     0.702540000000    -0.360699   
O53      O      0.276270000000     0.232310000000     0.812980000000    -0.369655   
O54      O      0.273480000000     0.312620000000     0.783040000000    -0.362611   
O55      O      0.279680000000     0.201410000000     0.736160000000    -0.360984   
O56      O      0.273910000000     0.279910000000     0.814780000000    -0.362435   
O57      O      0.279990000000     0.233220000000     0.703540000000    -0.361068   
O58      O      0.276600000000     0.199740000000     0.781150000000    -0.364795   
O59      O      0.278530000000     0.309620000000     0.735260000000    -0.36587    
O60      O      0.225980000000     0.226740000000     0.696020000000    -0.369207   
O61      O      0.222530000000     0.282900000000     0.817090000000    -0.360796   
O62      O      0.225540000000     0.315590000000     0.727860000000    -0.369681   
O63      O      0.217900000000     0.198550000000     0.781010000000    -0.369635   
O64      O      0.217350000000     0.230730000000     0.813250000000    -0.370434   
O65      O      0.224810000000     0.282850000000     0.696200000000    -0.368762   
O66      O      0.226570000000     0.194140000000     0.727870000000    -0.366716   
O67      O      0.221980000000     0.314500000000     0.784250000000    -0.364241   
O68      O      0.235140000000     0.255140000000     0.756610000000    -0.586226   
O69      O      0.017860000000     0.979300000000     0.071610000000    -0.367432   
O70      O      0.025310000000     0.531420000000     0.454560000000    -0.369538   
O71      O      0.020690000000     0.947650000000     0.483560000000    -0.363217   
O72      O      0.016100000000     0.568010000000     0.039940000000    -0.365858   
O73      O      0.020140000000     0.979250000000     0.450720000000    -0.359503   
O74      O      0.016690000000     0.535410000000     0.071780000000    -0.368234   
O75      O      0.024760000000     0.563600000000     0.486790000000    -0.368793   
O76      O      0.017130000000     0.946560000000     0.039950000000    -0.368836   
O77      O      0.462670000000     0.528930000000     0.064270000000    -0.361053   
O78      O      0.468750000000     0.982240000000     0.453020000000    -0.362028   
O79      O      0.464140000000     0.952530000000     0.032550000000    -0.365926   
O80      O      0.466070000000     0.562410000000     0.486660000000    -0.364643   
O81      O      0.466400000000     0.529840000000     0.454830000000    -0.369614   
O82      O      0.463650000000     0.984220000000     0.065260000000    -0.360494   
O83      O      0.462990000000     0.560740000000     0.031640000000    -0.361038   
O84      O      0.469190000000     0.949520000000     0.484760000000    -0.362565   
O85      O      0.007520000000     0.007010000000     0.011190000000    -0.584242   
O86      O      0.279010000000     0.777930000000     0.202540000000    -0.360705   
O87      O      0.276270000000     0.732310000000     0.312980000000    -0.369677   
O88      O      0.273480000000     0.812630000000     0.283040000000    -0.362446   
O89      O      0.279680000000     0.701410000000     0.236160000000    -0.360968   
O90      O      0.273910000000     0.779910000000     0.314780000000    -0.362553   
O91      O      0.279990000000     0.733220000000     0.203540000000    -0.361057   
O92      O      0.276600000000     0.699740000000     0.281150000000    -0.36479    
O93      O      0.278530000000     0.809620000000     0.235260000000    -0.365871   
O94      O      0.225980000000     0.726740000000     0.196020000000    -0.369215   
O95      O      0.222530000000     0.782900000000     0.317080000000    -0.360946   
O96      O      0.225540000000     0.815590000000     0.227860000000    -0.369661   
O97      O      0.217900000000     0.698550000000     0.281020000000    -0.369771   
O98      O      0.217350000000     0.730730000000     0.313240000000    -0.370627   
O99      O      0.224810000000     0.782850000000     0.196200000000    -0.368765   
O100     O      0.226570000000     0.694140000000     0.227870000000    -0.366715   
O101     O      0.221980000000     0.814500000000     0.284250000000    -0.364276   
O102     O      0.235140000000     0.755140000000     0.256610000000    -0.586224   
O103     O      0.017860000000     0.979300000000     0.571610000000    -0.367443   
O104     O      0.025310000000     0.531420000000     0.954560000000    -0.369517   
O105     O      0.020690000000     0.947650000000     0.983560000000    -0.362896   
O106     O      0.016100000000     0.568010000000     0.539940000000    -0.365829   
O107     O      0.020140000000     0.979250000000     0.950720000000    -0.359492   
O108     O      0.016690000000     0.535410000000     0.571780000000    -0.368229   
O109     O      0.024760000000     0.563600000000     0.986790000000    -0.368455   
O110     O      0.017130000000     0.946560000000     0.539950000000    -0.368678   
O111     O      0.462670000000     0.528930000000     0.564270000000    -0.361048   
O112     O      0.468750000000     0.982240000000     0.953020000000    -0.362018   
O113     O      0.464140000000     0.952530000000     0.532550000000    -0.365864   
O114     O      0.466070000000     0.562410000000     0.986660000000    -0.364258   
O115     O      0.466400000000     0.529840000000     0.954820000000    -0.369467   
O116     O      0.463650000000     0.984220000000     0.565260000000    -0.360488   
O117     O      0.462990000000     0.560740000000     0.531640000000    -0.360962   
O118     O      0.469190000000     0.949520000000     0.984760000000    -0.362231   
O119     O      0.007520000000     0.007010000000     0.511190000000    -0.5841     
O120     O      0.279010000000     0.777930000000     0.702540000000    -0.3607     
O121     O      0.276270000000     0.732310000000     0.812980000000    -0.369654   
O122     O      0.273480000000     0.812630000000     0.783040000000    -0.362444   
O123     O      0.279680000000     0.701410000000     0.736160000000    -0.360982   
O124     O      0.273910000000     0.779910000000     0.814780000000    -0.36253    
O125     O      0.279990000000     0.733220000000     0.703540000000    -0.36107    
O126     O      0.276600000000     0.699740000000     0.781150000000    -0.364792   
O127     O      0.278530000000     0.809620000000     0.735260000000    -0.365871   
O128     O      0.225980000000     0.726740000000     0.696020000000    -0.369208   
O129     O      0.222530000000     0.782900000000     0.817090000000    -0.360809   
O130     O      0.225540000000     0.815590000000     0.727860000000    -0.369663   
O131     O      0.217900000000     0.698550000000     0.781010000000    -0.36963    
O132     O      0.217350000000     0.730730000000     0.813250000000    -0.370433   
O133     O      0.224810000000     0.782850000000     0.696200000000    -0.36876    
O134     O      0.226570000000     0.694140000000     0.727870000000    -0.366711   
O135     O      0.221980000000     0.814500000000     0.784250000000    -0.36425    
O136     O      0.235140000000     0.755140000000     0.756610000000    -0.586223   
O137     O      0.517860000000     0.479300000000     0.071610000000    -0.368749   
O138     O      0.525310000000     0.031420000000     0.454560000000    -0.370533   
O139     O      0.520690000000     0.447650000000     0.483560000000    -0.364265   
O140     O      0.516100000000     0.068010000000     0.039940000000    -0.366871   
O141     O      0.520140000000     0.479250000000     0.450720000000    -0.360848   
O142     O      0.516690000000     0.035410000000     0.071780000000    -0.36929    
O143     O      0.524760000000     0.063600000000     0.486790000000    -0.369686   
O144     O      0.517130000000     0.446560000000     0.039950000000    -0.369883   
O145     O      0.962670000000     0.028930000000     0.064270000000    -0.361025   
O146     O      0.968750000000     0.482240000000     0.453020000000    -0.362308   
O147     O      0.964140000000     0.452530000000     0.032550000000    -0.365849   
O148     O      0.966070000000     0.062410000000     0.486660000000    -0.364492   
O149     O      0.966400000000     0.029840000000     0.454830000000    -0.369564   
O150     O      0.963650000000     0.484220000000     0.065260000000    -0.360742   
O151     O      0.962990000000     0.060740000000     0.031640000000    -0.36088    
O152     O      0.969190000000     0.449520000000     0.484760000000    -0.362557   
O153     O      0.507520000000     0.507010000000     0.011190000000    -0.586429   
O154     O      0.779010000000     0.277930000000     0.202540000000    -0.360698   
O155     O      0.776270000000     0.232310000000     0.312980000000    -0.369668   
O156     O      0.773480000000     0.312620000000     0.283040000000    -0.362683   
O157     O      0.779680000000     0.201410000000     0.236160000000    -0.360977   
O158     O      0.773910000000     0.279910000000     0.314780000000    -0.36253    
O159     O      0.779990000000     0.233220000000     0.203540000000    -0.361055   
O160     O      0.776600000000     0.199740000000     0.281150000000    -0.364784   
O161     O      0.778530000000     0.309620000000     0.235260000000    -0.365864   
O162     O      0.725980000000     0.226740000000     0.196020000000    -0.369232   
O163     O      0.722530000000     0.282900000000     0.317080000000    -0.360947   
O164     O      0.725540000000     0.315590000000     0.227860000000    -0.369677   
O165     O      0.717900000000     0.198550000000     0.281020000000    -0.369738   
O166     O      0.717360000000     0.230730000000     0.313240000000    -0.370636   
O167     O      0.724810000000     0.282850000000     0.196200000000    -0.368766   
O168     O      0.726560000000     0.194140000000     0.227870000000    -0.366718   
O169     O      0.721980000000     0.314500000000     0.284250000000    -0.364273   
O170     O      0.735140000000     0.255140000000     0.256610000000    -0.586235   
O171     O      0.517860000000     0.479300000000     0.571610000000    -0.36876    
O172     O      0.525310000000     0.031420000000     0.954560000000    -0.370509   
O173     O      0.520690000000     0.447650000000     0.983560000000    -0.363941   
O174     O      0.516100000000     0.068010000000     0.539940000000    -0.366842   
O175     O      0.520140000000     0.479250000000     0.950720000000    -0.360834   
O176     O      0.516690000000     0.035410000000     0.571780000000    -0.369285   
O177     O      0.524760000000     0.063600000000     0.986790000000    -0.369347   
O178     O      0.517130000000     0.446560000000     0.539950000000    -0.369726   
O179     O      0.962670000000     0.028930000000     0.564270000000    -0.36102    
O180     O      0.968750000000     0.482240000000     0.953020000000    -0.362298   
O181     O      0.964140000000     0.452530000000     0.532550000000    -0.365787   
O182     O      0.966070000000     0.062410000000     0.986660000000    -0.364107   
O183     O      0.966400000000     0.029840000000     0.954820000000    -0.369417   
O184     O      0.963650000000     0.484220000000     0.565260000000    -0.360737   
O185     O      0.962990000000     0.060740000000     0.531640000000    -0.360803   
O186     O      0.969190000000     0.449520000000     0.984760000000    -0.362222   
O187     O      0.507520000000     0.507010000000     0.511190000000    -0.586288   
O188     O      0.779010000000     0.277930000000     0.702540000000    -0.360693   
O189     O      0.776270000000     0.232310000000     0.812980000000    -0.369645   
O190     O      0.773480000000     0.312620000000     0.783040000000    -0.362681   
O191     O      0.779680000000     0.201410000000     0.736160000000    -0.36099    
O192     O      0.773910000000     0.279910000000     0.814780000000    -0.362508   
O193     O      0.779990000000     0.233220000000     0.703540000000    -0.361068   
O194     O      0.776600000000     0.199740000000     0.781150000000    -0.364786   
O195     O      0.778530000000     0.309620000000     0.735260000000    -0.365863   
O196     O      0.725980000000     0.226740000000     0.696020000000    -0.369225   
O197     O      0.722530000000     0.282900000000     0.817090000000    -0.360809   
O198     O      0.725540000000     0.315590000000     0.727860000000    -0.369679   
O199     O      0.717900000000     0.198550000000     0.781010000000    -0.369598   
O200     O      0.717360000000     0.230730000000     0.813250000000    -0.370442   
O201     O      0.724810000000     0.282850000000     0.696200000000    -0.36876    
O202     O      0.726560000000     0.194140000000     0.727870000000    -0.366714   
O203     O      0.721980000000     0.314500000000     0.784250000000    -0.364248   
O204     O      0.735140000000     0.255140000000     0.756610000000    -0.586234   
O205     O      0.517860000000     0.979300000000     0.071610000000    -0.368444   
O206     O      0.525310000000     0.531420000000     0.454560000000    -0.370497   
O207     O      0.520690000000     0.947650000000     0.483560000000    -0.36423    
O208     O      0.516100000000     0.568010000000     0.039940000000    -0.366843   
O209     O      0.520140000000     0.979250000000     0.450720000000    -0.360528   
O210     O      0.516690000000     0.535410000000     0.071780000000    -0.369249   
O211     O      0.524760000000     0.563600000000     0.486790000000    -0.369681   
O212     O      0.517130000000     0.946560000000     0.039950000000    -0.369878   
O213     O      0.962670000000     0.528930000000     0.064270000000    -0.360955   
O214     O      0.968750000000     0.982240000000     0.453020000000    -0.361993   
O215     O      0.964140000000     0.952530000000     0.032550000000    -0.365835   
O216     O      0.966070000000     0.562410000000     0.486660000000    -0.364506   
O217     O      0.966400000000     0.529840000000     0.454830000000    -0.369516   
O218     O      0.963650000000     0.984220000000     0.065260000000    -0.360417   
O219     O      0.962990000000     0.560740000000     0.031640000000    -0.360869   
O220     O      0.969190000000     0.949520000000     0.484760000000    -0.362553   
O221     O      0.507520000000     0.007010000000     0.011190000000    -0.586555   
O222     O      0.779010000000     0.777930000000     0.202540000000    -0.360699   
O223     O      0.776270000000     0.732310000000     0.312980000000    -0.369667   
O224     O      0.773480000000     0.812630000000     0.283040000000    -0.362516   
O225     O      0.779680000000     0.701410000000     0.236160000000    -0.360974   
O226     O      0.773910000000     0.779910000000     0.314780000000    -0.362625   
O227     O      0.779990000000     0.733220000000     0.203540000000    -0.361057   
O228     O      0.776600000000     0.699740000000     0.281150000000    -0.36478    
O229     O      0.778530000000     0.809620000000     0.235260000000    -0.365864   
O230     O      0.725980000000     0.726740000000     0.196020000000    -0.369233   
O231     O      0.722530000000     0.782900000000     0.317080000000    -0.360959   
O232     O      0.725540000000     0.815590000000     0.227860000000    -0.369659   
O233     O      0.717900000000     0.698550000000     0.281020000000    -0.369734   
O234     O      0.717360000000     0.730730000000     0.313240000000    -0.370634   
O235     O      0.724810000000     0.782850000000     0.196200000000    -0.368764   
O236     O      0.726560000000     0.694140000000     0.227870000000    -0.366713   
O237     O      0.721980000000     0.814500000000     0.284250000000    -0.364282   
O238     O      0.735140000000     0.755140000000     0.256610000000    -0.586232   
O239     O      0.517860000000     0.979300000000     0.571610000000    -0.368454   
O240     O      0.525310000000     0.531420000000     0.954560000000    -0.370473   
O241     O      0.520690000000     0.947650000000     0.983560000000    -0.363906   
O242     O      0.516100000000     0.568010000000     0.539940000000    -0.366814   
O243     O      0.520140000000     0.979250000000     0.950720000000    -0.360514   
O244     O      0.516690000000     0.535410000000     0.571780000000    -0.369244   
O245     O      0.524760000000     0.563600000000     0.986790000000    -0.369341   
O246     O      0.517130000000     0.946560000000     0.539950000000    -0.36972    
O247     O      0.962670000000     0.528930000000     0.564270000000    -0.36095    
O248     O      0.968750000000     0.982240000000     0.953020000000    -0.361984   
O249     O      0.964140000000     0.952530000000     0.532550000000    -0.365773   
O250     O      0.966070000000     0.562410000000     0.986660000000    -0.36412    
O251     O      0.966400000000     0.529840000000     0.954820000000    -0.369368   
O252     O      0.963650000000     0.984220000000     0.565260000000    -0.360411   
O253     O      0.962990000000     0.560740000000     0.531640000000    -0.360792   
O254     O      0.969190000000     0.949520000000     0.984760000000    -0.362218   
O255     O      0.507520000000     0.007010000000     0.511190000000    -0.586415   
O256     O      0.779010000000     0.777930000000     0.702540000000    -0.360694   
O257     O      0.776270000000     0.732310000000     0.812980000000    -0.369644   
O258     O      0.773480000000     0.812630000000     0.783040000000    -0.362514   
O259     O      0.779680000000     0.701410000000     0.736160000000    -0.360988   
O260     O      0.773910000000     0.779910000000     0.814780000000    -0.362603   
O261     O      0.779990000000     0.733220000000     0.703540000000    -0.36107    
O262     O      0.776600000000     0.699740000000     0.781150000000    -0.364782   
O263     O      0.778530000000     0.809620000000     0.735260000000    -0.365864   
O264     O      0.725980000000     0.726740000000     0.696020000000    -0.369226   
O265     O      0.722530000000     0.782900000000     0.817090000000    -0.360821   
O266     O      0.725540000000     0.815590000000     0.727860000000    -0.369661   
O267     O      0.717900000000     0.698550000000     0.781010000000    -0.369594   
O268     O      0.717360000000     0.730730000000     0.813250000000    -0.37044    
O269     O      0.724810000000     0.782850000000     0.696200000000    -0.368759   
O270     O      0.726560000000     0.694140000000     0.727870000000    -0.366709   
O271     O      0.721980000000     0.814500000000     0.784250000000    -0.364256   
O272     O      0.735140000000     0.755140000000     0.756610000000    -0.586231   


