data_structure

_audit_creation_method RASPA-1.0
_audit_creation_date 2023-5-25
_audit_author_name 'Poobodin Mano'

_cell_length_a    46.1087
_cell_length_b    46.1009
_cell_length_c    54.0703
_cell_angle_alpha 90
_cell_angle_beta  90
_cell_angle_gamma 90
_cell_volume      114935

_symmetry_cell_setting          triclinic
_symmetry_space_group_name_Hall 'P 1'
_symmetry_space_group_name_H-M  'P 1'
_symmetry_Int_Tables_number     1

_symmetry_equiv_pos_as_xyz 'x,y,z'

loop_
_atom_site_label
_atom_site_type_symbol
_atom_site_fract_x
_atom_site_fract_y
_atom_site_fract_z
_atom_site_charge
C1       C      0.499140000000     0.494140000000     0.424200000000     0.397528   
C2       C      0.095390000000     0.103000000000     0.435920000000     0.395201   
C3       C      0.490290000000     0.099520000000     0.434570000000     0.393292   
C4       C      0.099290000000     0.498100000000     0.429090000000     0.396801   
C5       C      0.095940000000     0.495660000000     0.995650000000     0.388773   
C6       C      0.489580000000     0.088550000000     0.997640000000     0.386043   
C7       C      0.497110000000     0.495190000000     0.996230000000     0.381551   
C8       C      0.089100000000     0.090860000000     0.003950000000     0.389122   
C9       C      0.337590000000     0.336770000000     0.170480000000     0.388935   
C10      C      0.248800000000     0.249780000000     0.174030000000     0.388899   
C11      C      0.340280000000     0.234680000000     0.183320000000     0.399114   
C12      C      0.240500000000     0.348690000000     0.183950000000     0.39758    
C13      C      0.251960000000     0.339610000000     0.253350000000     0.400374   
C14      C      0.339370000000     0.250450000000     0.251690000000     0.39992    
C15      C      0.350330000000     0.344690000000     0.238570000000     0.399973   
C16      C      0.233580000000     0.240570000000     0.240220000000     0.396128   
C17      C      0.192390000000     0.229860000000     0.129390000000    -0.0250452  
C18      C      0.147500000000     0.111500000000     0.046800000000    -0.0297329  
C19      C      0.087090000000     0.126940000000     0.037850000000    -0.00788298 
C20      C      0.126420000000     0.088710000000     0.036830000000    -0.00787179 
C21      C      0.169900000000     0.171020000000     0.062500000000    -0.05487    
C22      C      0.169670000000     0.170060000000     0.114230000000    -0.0567925  
C23      C      0.151120000000     0.151980000000     0.075110000000     0.0622924  
C24      C      0.109680000000     0.148310000000     0.047760000000    -0.0296252  
C25      C      0.188580000000     0.188970000000     0.101640000000     0.0650961  
C26      C      0.229430000000     0.192160000000     0.129680000000    -0.00222204 
C27      C      0.188470000000     0.189290000000     0.075730000000    -0.0513399  
C28      C      0.252100000000     0.212990000000     0.140740000000    -0.0579792  
C29      C      0.213630000000     0.252380000000     0.139490000000    -0.00860344 
C30      C      0.151170000000     0.151740000000     0.101010000000    -0.0525155  
C31      C      0.273230000000     0.223670000000     0.121400000000     0.310691   
C32      C      0.107570000000     0.157810000000     0.387220000000    -0.0248524  
C33      C      0.212180000000     0.187990000000     0.287610000000    -0.0296133  
C34      C      0.185140000000     0.234790000000     0.259670000000    -0.00763194 
C35      C      0.221730000000     0.194080000000     0.261000000000    -0.00776772 
C36      C      0.180590000000     0.197580000000     0.336990000000    -0.0549599  
C37      C      0.138130000000     0.154230000000     0.337210000000    -0.056618   
C38      C      0.170200000000     0.186450000000     0.314400000000     0.0619903  
C39      C      0.176790000000     0.227140000000     0.286330000000    -0.0298695  
C40      C      0.148580000000     0.165270000000     0.359810000000     0.0645488  
C41      C      0.147710000000     0.123650000000     0.387020000000    -0.00322228 
C42      C      0.169790000000     0.187050000000     0.359450000000    -0.0514057  
C43      C      0.141080000000     0.113650000000     0.413600000000    -0.0567686  
C44      C      0.099500000000     0.150000000000     0.413890000000    -0.0083762  
C45      C      0.148860000000     0.164820000000     0.314760000000    -0.0523994  
C46      C      0.162170000000     0.126660000000     0.431880000000     0.312507   
C47      C      0.111560000000     0.442610000000     0.045790000000    -0.0247013  
C48      C      0.222420000000     0.404670000000     0.137570000000    -0.0314892  
C49      C      0.193200000000     0.357970000000     0.164060000000    -0.00657865 
C50      C      0.233090000000     0.395880000000     0.163250000000    -0.00367213 
C51      C      0.158030000000     0.433110000000     0.115210000000    -0.0531122  
C52      C      0.175650000000     0.414060000000     0.068440000000    -0.0512957  
C53      C      0.179040000000     0.411310000000     0.113240000000     0.0630114  
C54      C      0.184320000000     0.368250000000     0.138300000000    -0.0295151  
C55      C      0.154680000000     0.435890000000     0.070420000000     0.0647294  
C56      C      0.149310000000     0.479160000000     0.045610000000    -0.00382445 
C57      C      0.145870000000     0.445360000000     0.094010000000    -0.0566432  
C58      C      0.140990000000     0.489840000000     0.019670000000    -0.0567214  
C59      C      0.101430000000     0.450720000000     0.019820000000    -0.00801486 
C60      C      0.187780000000     0.401780000000     0.089650000000    -0.0554484  
C61      C      0.162820000000     0.479760000000     0.000690000000     0.314409   
C62      C      0.390990000000     0.209730000000     0.134640000000    -0.0252129  
C63      C      0.433070000000     0.096800000000     0.046710000000    -0.0292675  
C64      C      0.478580000000     0.131200000000     0.023250000000    -0.00861925 
C65      C      0.443660000000     0.088210000000     0.020920000000    -0.008753   
C66      C      0.398360000000     0.158550000000     0.068900000000    -0.0514352  
C67      C      0.417320000000     0.143490000000     0.116320000000    -0.0529922  
C68      C      0.421160000000     0.138770000000     0.071660000000     0.0619274  
C69      C      0.466150000000     0.137470000000     0.048840000000    -0.0290525  
C70      C      0.395150000000     0.163980000000     0.113540000000     0.0658551  
C71      C      0.353190000000     0.173570000000     0.139340000000    -0.00537958 
C72      C      0.385340000000     0.171070000000     0.089620000000    -0.0572532  
C73      C      0.343900000000     0.185860000000     0.164620000000    -0.0534824  
C74      C      0.384530000000     0.223220000000     0.159760000000    -0.0054081  
C75      C      0.430250000000     0.130860000000     0.095580000000    -0.054612   
C76      C      0.353830000000     0.166460000000     0.185480000000     0.313253   
C77      C      0.444290000000     0.472880000000     0.376520000000    -0.0266104  
C78      C      0.412610000000     0.364170000000     0.280650000000    -0.0276798  
C79      C      0.356950000000     0.387800000000     0.264320000000    -0.00910835 
C80      C      0.391670000000     0.344010000000     0.267040000000    -0.00851849 
C81      C      0.407470000000     0.399620000000     0.337230000000    -0.0519091  
C82      C      0.452550000000     0.435660000000     0.321340000000    -0.0522383  
C83      C      0.413840000000     0.401630000000     0.311960000000     0.0633338  
C84      C      0.380250000000     0.405070000000     0.277840000000    -0.0270387  
C85      C      0.445910000000     0.433950000000     0.346560000000     0.0648898  
C86      C      0.479030000000     0.434050000000     0.381370000000    -0.00736388 
C87      C      0.423380000000     0.415590000000     0.354480000000    -0.0561262  
C88      C      0.501270000000     0.453670000000     0.394240000000    -0.0547814  
C89      C      0.463660000000     0.494500000000     0.390190000000    -0.00849624 
C90      C      0.436700000000     0.419640000000     0.304100000000    -0.0552511  
C91      C      0.525200000000     0.461640000000     0.376290000000     0.315054   
C92      C      0.394930000000     0.217700000000     0.292070000000    -0.0262867  
C93      C      0.461960000000     0.166550000000     0.403930000000    -0.0293168  
C94      C      0.451980000000     0.104050000000     0.403320000000    -0.00676805 
C95      C      0.470970000000     0.148370000000     0.426380000000    -0.00847875 
C96      C      0.436540000000     0.195050000000     0.361300000000    -0.0539218  
C97      C      0.381660000000     0.177480000000     0.345250000000    -0.0537148  
C98      C      0.423570000000     0.170290000000     0.371990000000     0.0621821  
C99      C      0.446140000000     0.124080000000     0.381450000000    -0.0297887  
C100     C      0.394220000000     0.202720000000     0.335010000000     0.0640941  
C101     C      0.348680000000     0.214840000000     0.313090000000    -0.00355089 
C102     C      0.421600000000     0.211410000000     0.343670000000    -0.0510124  
C103     C      0.334800000000     0.237080000000     0.295530000000    -0.0575265  
C104     C      0.384350000000     0.241740000000     0.274870000000    -0.00461402 
C105     C      0.395800000000     0.162180000000     0.363950000000    -0.0517858  
C106     C      0.330430000000     0.265850000000     0.308400000000     0.31416    
C107     C      0.198500000000     0.363190000000     0.299540000000    -0.0254826  
C108     C      0.163420000000     0.474980000000     0.391720000000    -0.028565   
C109     C      0.101980000000     0.461020000000     0.396510000000    -0.00935254 
C110     C      0.142750000000     0.497690000000     0.402510000000    -0.008383   
C111     C      0.183660000000     0.416410000000     0.370770000000    -0.0547997  
C112     C      0.184090000000     0.423240000000     0.319350000000    -0.0567344  
C113     C      0.166710000000     0.438280000000     0.359730000000     0.06271    
C114     C      0.124650000000     0.440110000000     0.386330000000    -0.0281505  
C115     C      0.200620000000     0.401010000000     0.330320000000     0.0654984  
C116     C      0.240580000000     0.395070000000     0.301710000000    -0.00290708 
C117     C      0.200450000000     0.397950000000     0.356090000000    -0.0515607  
C118     C      0.260020000000     0.372400000000     0.288960000000    -0.0558576  
C119     C      0.216220000000     0.339080000000     0.287430000000    -0.00765513 
C120     C      0.167280000000     0.441640000000     0.334010000000    -0.0523643  
C121     C      0.279080000000     0.356570000000     0.307300000000     0.312573   
C122     C      0.395030000000     0.356490000000     0.125710000000    -0.0247472  
C123     C      0.437090000000     0.471150000000     0.037730000000    -0.029689   
C124     C      0.497520000000     0.456380000000     0.027840000000    -0.00899547 
C125     C      0.457390000000     0.494200000000     0.026910000000    -0.00879473 
C126     C      0.415840000000     0.412080000000     0.056050000000    -0.0547619  
C127     C      0.417660000000     0.415570000000     0.107700000000    -0.0568561  
C128     C      0.434940000000     0.431840000000     0.067460000000     0.0610475  
C129     C      0.475270000000     0.435090000000     0.038620000000    -0.0295243  
C130     C      0.398340000000     0.396020000000     0.096290000000     0.0643157  
C131     C      0.358300000000     0.394230000000     0.125480000000    -0.00281698 
C132     C      0.397720000000     0.394420000000     0.070400000000    -0.0518908  
C133     C      0.335590000000     0.374010000000     0.137420000000    -0.0582243  
C134     C      0.373960000000     0.334320000000     0.136800000000    -0.00875115 
C135     C      0.435690000000     0.433290000000     0.093350000000    -0.0522746  
C136     C      0.313770000000     0.363490000000     0.118610000000     0.313093   
C137     C      0.499140000000     0.494140000000     0.924200000000     0.397483   
C138     C      0.095390000000     0.103000000000     0.935920000000     0.395211   
C139     C      0.490290000000     0.099520000000     0.934560000000     0.393222   
C140     C      0.099290000000     0.498100000000     0.929090000000     0.396803   
C141     C      0.095940000000     0.495660000000     0.495650000000     0.388489   
C142     C      0.489580000000     0.088550000000     0.497640000000     0.385759   
C143     C      0.497110000000     0.495190000000     0.496230000000     0.381216   
C144     C      0.089100000000     0.090860000000     0.503950000000     0.389815   
C145     C      0.337590000000     0.336770000000     0.670480000000     0.388851   
C146     C      0.248800000000     0.249780000000     0.674030000000     0.388896   
C147     C      0.340280000000     0.234680000000     0.683320000000     0.399113   
C148     C      0.240500000000     0.348690000000     0.683950000000     0.397578   
C149     C      0.251960000000     0.339610000000     0.753350000000     0.400375   
C150     C      0.339370000000     0.250450000000     0.751690000000     0.39992    
C151     C      0.350330000000     0.344690000000     0.738570000000     0.399975   
C152     C      0.233580000000     0.240570000000     0.740220000000     0.396127   
C153     C      0.192390000000     0.229860000000     0.629390000000    -0.0250442  
C154     C      0.147500000000     0.111500000000     0.546800000000    -0.0297461  
C155     C      0.087090000000     0.126940000000     0.537850000000    -0.00784356 
C156     C      0.126420000000     0.088710000000     0.536830000000    -0.00783222 
C157     C      0.169900000000     0.171020000000     0.562500000000    -0.0548526  
C158     C      0.169670000000     0.170060000000     0.614230000000    -0.0567695  
C159     C      0.151120000000     0.151980000000     0.575110000000     0.0622972  
C160     C      0.109680000000     0.148310000000     0.547760000000    -0.0296382  
C161     C      0.188580000000     0.188970000000     0.601630000000     0.0650936  
C162     C      0.229430000000     0.192160000000     0.629680000000    -0.00220322 
C163     C      0.188470000000     0.189290000000     0.575730000000    -0.0513597  
C164     C      0.252100000000     0.212990000000     0.640740000000    -0.0580239  
C165     C      0.213630000000     0.252380000000     0.639490000000    -0.00860586 
C166     C      0.151170000000     0.151740000000     0.601010000000    -0.0525237  
C167     C      0.273230000000     0.223670000000     0.621410000000     0.310581   
C168     C      0.107570000000     0.157810000000     0.887220000000    -0.0248502  
C169     C      0.212180000000     0.187990000000     0.787610000000    -0.0296133  
C170     C      0.185140000000     0.234790000000     0.759670000000    -0.00764243 
C171     C      0.221730000000     0.194080000000     0.761000000000    -0.00776856 
C172     C      0.180590000000     0.197580000000     0.836990000000    -0.0549572  
C173     C      0.138130000000     0.154230000000     0.837210000000    -0.0566198  
C174     C      0.170200000000     0.186450000000     0.814400000000     0.0619891  
C175     C      0.176790000000     0.227140000000     0.786330000000    -0.0298302  
C176     C      0.148580000000     0.165270000000     0.859810000000     0.0645517  
C177     C      0.147710000000     0.123650000000     0.887020000000    -0.00322481 
C178     C      0.169790000000     0.187050000000     0.859450000000    -0.0514042  
C179     C      0.141080000000     0.113650000000     0.913600000000    -0.0567624  
C180     C      0.099500000000     0.150000000000     0.913890000000    -0.00838018 
C181     C      0.148860000000     0.164820000000     0.814760000000    -0.0523996  
C182     C      0.162170000000     0.126660000000     0.931880000000     0.312512   
C183     C      0.111560000000     0.442610000000     0.545790000000    -0.0246779  
C184     C      0.222420000000     0.404670000000     0.637570000000    -0.0314983  
C185     C      0.193200000000     0.357970000000     0.664060000000    -0.00657318 
C186     C      0.233090000000     0.395880000000     0.663250000000    -0.00366565 
C187     C      0.158030000000     0.433110000000     0.615210000000    -0.0530546  
C188     C      0.175650000000     0.414060000000     0.568440000000    -0.0513045  
C189     C      0.179040000000     0.411310000000     0.613240000000     0.062902   
C190     C      0.184320000000     0.368250000000     0.638300000000    -0.0295209  
C191     C      0.154680000000     0.435890000000     0.570420000000     0.0647573  
C192     C      0.149310000000     0.479160000000     0.545610000000    -0.00374575 
C193     C      0.145870000000     0.445360000000     0.594010000000    -0.0566733  
C194     C      0.140990000000     0.489840000000     0.519670000000    -0.0569189  
C195     C      0.101430000000     0.450720000000     0.519820000000    -0.00803717 
C196     C      0.187780000000     0.401780000000     0.589640000000    -0.0553685  
C197     C      0.162820000000     0.479760000000     0.500690000000     0.315158   
C198     C      0.390990000000     0.209730000000     0.634640000000    -0.0252158  
C199     C      0.433070000000     0.096800000000     0.546710000000    -0.0292599  
C200     C      0.478580000000     0.131200000000     0.523250000000    -0.00863226 
C201     C      0.443660000000     0.088210000000     0.520920000000    -0.00876378 
C202     C      0.398360000000     0.158550000000     0.568900000000    -0.051412   
C203     C      0.417320000000     0.143490000000     0.616320000000    -0.0529877  
C204     C      0.421160000000     0.138770000000     0.571660000000     0.0618949  
C205     C      0.466150000000     0.137470000000     0.548840000000    -0.0290336  
C206     C      0.395150000000     0.163980000000     0.613540000000     0.065856   
C207     C      0.353190000000     0.173570000000     0.639340000000    -0.0053823  
C208     C      0.385340000000     0.171070000000     0.589620000000    -0.0572533  
C209     C      0.343900000000     0.185860000000     0.664620000000    -0.0534823  
C210     C      0.384530000000     0.223220000000     0.659760000000    -0.00540732 
C211     C      0.430250000000     0.130860000000     0.595590000000    -0.0545772  
C212     C      0.353830000000     0.166460000000     0.685480000000     0.313252   
C213     C      0.444290000000     0.472880000000     0.876520000000    -0.0266097  
C214     C      0.412610000000     0.364170000000     0.780650000000    -0.0276805  
C215     C      0.356950000000     0.387800000000     0.764320000000    -0.00910888 
C216     C      0.391670000000     0.344010000000     0.767040000000    -0.00851901 
C217     C      0.407470000000     0.399620000000     0.837230000000    -0.0518783  
C218     C      0.452550000000     0.435660000000     0.821340000000    -0.0522577  
C219     C      0.413840000000     0.401630000000     0.811960000000     0.0633204  
C220     C      0.380250000000     0.405070000000     0.777840000000    -0.0270394  
C221     C      0.445910000000     0.433950000000     0.846560000000     0.0649239  
C222     C      0.479030000000     0.434050000000     0.881370000000    -0.00736495 
C223     C      0.423380000000     0.415590000000     0.854490000000    -0.0562075  
C224     C      0.501270000000     0.453670000000     0.894240000000    -0.0547811  
C225     C      0.463660000000     0.494500000000     0.890190000000    -0.00850031 
C226     C      0.436700000000     0.419640000000     0.804100000000    -0.0552388  
C227     C      0.525200000000     0.461640000000     0.876290000000     0.315054   
C228     C      0.394930000000     0.217700000000     0.792070000000    -0.0262868  
C229     C      0.461960000000     0.166550000000     0.903930000000    -0.0293164  
C230     C      0.451980000000     0.104050000000     0.903320000000    -0.00676991 
C231     C      0.470970000000     0.148370000000     0.926380000000    -0.00846998 
C232     C      0.436540000000     0.195050000000     0.861300000000    -0.0539204  
C233     C      0.381660000000     0.177480000000     0.845250000000    -0.0537107  
C234     C      0.423570000000     0.170290000000     0.871990000000     0.0621898  
C235     C      0.446140000000     0.124080000000     0.881450000000    -0.029786   
C236     C      0.394220000000     0.202720000000     0.835010000000     0.0640957  
C237     C      0.348680000000     0.214840000000     0.813090000000    -0.00355288 
C238     C      0.421600000000     0.211410000000     0.843670000000    -0.0510077  
C239     C      0.334800000000     0.237080000000     0.795530000000    -0.0575314  
C240     C      0.384350000000     0.241740000000     0.774870000000    -0.00461532 
C241     C      0.395800000000     0.162180000000     0.863950000000    -0.0517822  
C242     C      0.330430000000     0.265850000000     0.808400000000     0.314161   
C243     C      0.198500000000     0.363190000000     0.799550000000    -0.0254284  
C244     C      0.163420000000     0.474980000000     0.891720000000    -0.028568   
C245     C      0.101980000000     0.461020000000     0.896510000000    -0.00935017 
C246     C      0.142750000000     0.497690000000     0.902510000000    -0.00838058 
C247     C      0.183660000000     0.416410000000     0.870770000000    -0.0547963  
C248     C      0.184090000000     0.423240000000     0.819350000000    -0.0567353  
C249     C      0.166710000000     0.438280000000     0.859730000000     0.0627114  
C250     C      0.124650000000     0.440110000000     0.886330000000    -0.0281534  
C251     C      0.200620000000     0.401010000000     0.830320000000     0.0655003  
C252     C      0.240580000000     0.395070000000     0.801710000000    -0.00290788 
C253     C      0.200450000000     0.397950000000     0.856090000000    -0.0515563  
C254     C      0.260020000000     0.372400000000     0.788960000000    -0.0558593  
C255     C      0.216220000000     0.339080000000     0.787430000000    -0.00768423 
C256     C      0.167280000000     0.441640000000     0.834010000000    -0.0523646  
C257     C      0.279080000000     0.356570000000     0.807300000000     0.312574   
C258     C      0.395030000000     0.356490000000     0.625710000000    -0.0247461  
C259     C      0.437090000000     0.471150000000     0.537730000000    -0.0296895  
C260     C      0.497520000000     0.456380000000     0.527840000000    -0.00900237 
C261     C      0.457390000000     0.494200000000     0.526910000000    -0.00879566 
C262     C      0.415840000000     0.412080000000     0.556050000000    -0.0547667  
C263     C      0.417660000000     0.415570000000     0.607700000000    -0.0568737  
C264     C      0.434940000000     0.431840000000     0.567460000000     0.0610551  
C265     C      0.475270000000     0.435090000000     0.538620000000    -0.0295225  
C266     C      0.398340000000     0.396020000000     0.596300000000     0.0643246  
C267     C      0.358300000000     0.394230000000     0.625480000000    -0.00280516 
C268     C      0.397720000000     0.394420000000     0.570400000000    -0.0518492  
C269     C      0.335590000000     0.374010000000     0.637420000000    -0.058264   
C270     C      0.373960000000     0.334320000000     0.636800000000    -0.00875452 
C271     C      0.435690000000     0.433290000000     0.593350000000    -0.0522659  
C272     C      0.313770000000     0.363490000000     0.618610000000     0.313162   
C273     C      0.499140000000     0.994140000000     0.424200000000     0.398077   
C274     C      0.095390000000     0.603000000000     0.435920000000     0.395211   
C275     C      0.490290000000     0.599520000000     0.434570000000     0.393375   
C276     C      0.099290000000     0.998100000000     0.429090000000     0.397218   
C277     C      0.095940000000     0.995660000000     0.995650000000     0.389297   
C278     C      0.489580000000     0.588550000000     0.997640000000     0.38606    
C279     C      0.497110000000     0.995190000000     0.996230000000     0.382104   
C280     C      0.089100000000     0.590860000000     0.003950000000     0.389188   
C281     C      0.337590000000     0.836770000000     0.170480000000     0.388937   
C282     C      0.248800000000     0.749780000000     0.174030000000     0.388897   
C283     C      0.340280000000     0.734680000000     0.183320000000     0.399329   
C284     C      0.240500000000     0.848690000000     0.183950000000     0.397577   
C285     C      0.251960000000     0.839610000000     0.253350000000     0.400373   
C286     C      0.339370000000     0.750450000000     0.251690000000     0.399796   
C287     C      0.350330000000     0.844690000000     0.238570000000     0.400033   
C288     C      0.233580000000     0.740570000000     0.240220000000     0.396194   
C289     C      0.192390000000     0.729860000000     0.129390000000    -0.0250476  
C290     C      0.147500000000     0.611500000000     0.046800000000    -0.0297471  
C291     C      0.087090000000     0.626940000000     0.037850000000    -0.00793092 
C292     C      0.126420000000     0.588710000000     0.036830000000    -0.00782761 
C293     C      0.169900000000     0.671020000000     0.062500000000    -0.0548686  
C294     C      0.169670000000     0.670060000000     0.114230000000    -0.0567821  
C295     C      0.151120000000     0.651980000000     0.075110000000     0.0623032  
C296     C      0.109680000000     0.648310000000     0.047760000000    -0.0296101  
C297     C      0.188580000000     0.688970000000     0.101640000000     0.0650982  
C298     C      0.229430000000     0.692160000000     0.129680000000    -0.00222654 
C299     C      0.188470000000     0.689290000000     0.075730000000    -0.0513344  
C300     C      0.252100000000     0.712990000000     0.140740000000    -0.0579786  
C301     C      0.213630000000     0.752380000000     0.139490000000    -0.00860346 
C302     C      0.151170000000     0.651740000000     0.101010000000    -0.0525073  
C303     C      0.273230000000     0.723670000000     0.121400000000     0.310693   
C304     C      0.107570000000     0.657810000000     0.387220000000    -0.0248574  
C305     C      0.212180000000     0.687990000000     0.287610000000    -0.029593   
C306     C      0.185140000000     0.734790000000     0.259670000000    -0.00757945 
C307     C      0.221730000000     0.694080000000     0.261000000000    -0.00782518 
C308     C      0.180590000000     0.697590000000     0.336990000000    -0.0550714  
C309     C      0.138130000000     0.654230000000     0.337210000000    -0.0565895  
C310     C      0.170200000000     0.686450000000     0.314400000000     0.0620346  
C311     C      0.176790000000     0.727140000000     0.286330000000    -0.0299013  
C312     C      0.148580000000     0.665270000000     0.359810000000     0.064525   
C313     C      0.147710000000     0.623650000000     0.387020000000    -0.00323032 
C314     C      0.169790000000     0.687050000000     0.359450000000    -0.05133    
C315     C      0.141080000000     0.613650000000     0.413600000000    -0.0567592  
C316     C      0.099500000000     0.650000000000     0.413890000000    -0.00837184 
C317     C      0.148860000000     0.664820000000     0.314760000000    -0.0524133  
C318     C      0.162170000000     0.626660000000     0.431880000000     0.312503   
C319     C      0.111560000000     0.942610000000     0.045790000000    -0.0247234  
C320     C      0.222420000000     0.904670000000     0.137570000000    -0.0314808  
C321     C      0.193200000000     0.857970000000     0.164060000000    -0.00658089 
C322     C      0.233090000000     0.895880000000     0.163250000000    -0.00369766 
C323     C      0.158030000000     0.933110000000     0.115210000000    -0.0530965  
C324     C      0.175650000000     0.914060000000     0.068440000000    -0.0512592  
C325     C      0.179040000000     0.911310000000     0.113240000000     0.0630276  
C326     C      0.184320000000     0.868250000000     0.138300000000    -0.0295139  
C327     C      0.154680000000     0.935890000000     0.070420000000     0.0647327  
C328     C      0.149310000000     0.979160000000     0.045610000000    -0.00398517 
C329     C      0.145870000000     0.945360000000     0.094010000000    -0.056623   
C330     C      0.140990000000     0.989840000000     0.019670000000    -0.0561362  
C331     C      0.101430000000     0.950720000000     0.019820000000    -0.00798056 
C332     C      0.187780000000     0.901780000000     0.089650000000    -0.0554567  
C333     C      0.162820000000     0.979760000000     0.000690000000     0.314266   
C334     C      0.390990000000     0.709730000000     0.134640000000    -0.0252174  
C335     C      0.433070000000     0.596800000000     0.046710000000    -0.0292746  
C336     C      0.478580000000     0.631200000000     0.023250000000    -0.00861409 
C337     C      0.443660000000     0.588210000000     0.020920000000    -0.00874583 
C338     C      0.398360000000     0.658560000000     0.068900000000    -0.0514236  
C339     C      0.417320000000     0.643490000000     0.116320000000    -0.0529807  
C340     C      0.421160000000     0.638770000000     0.071660000000     0.0619203  
C341     C      0.466150000000     0.637470000000     0.048840000000    -0.0290571  
C342     C      0.395150000000     0.663980000000     0.113540000000     0.06586    
C343     C      0.353190000000     0.673570000000     0.139340000000    -0.00538489 
C344     C      0.385340000000     0.671070000000     0.089620000000    -0.0572415  
C345     C      0.343900000000     0.685860000000     0.164620000000    -0.0534782  
C346     C      0.384530000000     0.723220000000     0.159760000000    -0.00539687 
C347     C      0.430250000000     0.630860000000     0.095580000000    -0.0545952  
C348     C      0.353830000000     0.666460000000     0.185480000000     0.313281   
C349     C      0.444290000000     0.972870000000     0.376520000000    -0.0268883  
C350     C      0.412610000000     0.864170000000     0.280650000000    -0.0277031  
C351     C      0.356950000000     0.887800000000     0.264320000000    -0.0091577  
C352     C      0.391670000000     0.844010000000     0.267040000000    -0.00846142 
C353     C      0.407470000000     0.899620000000     0.337230000000    -0.0518971  
C354     C      0.452550000000     0.935660000000     0.321340000000    -0.0522265  
C355     C      0.413840000000     0.901630000000     0.311960000000     0.0633391  
C356     C      0.380250000000     0.905070000000     0.277840000000    -0.0270278  
C357     C      0.445910000000     0.933950000000     0.346560000000     0.064907   
C358     C      0.479030000000     0.934050000000     0.381370000000    -0.00741778 
C359     C      0.423380000000     0.915590000000     0.354480000000    -0.0561205  
C360     C      0.501270000000     0.953670000000     0.394240000000    -0.0546441  
C361     C      0.463660000000     0.994500000000     0.390190000000    -0.00736312 
C362     C      0.436700000000     0.919640000000     0.304100000000    -0.0552295  
C363     C      0.525200000000     0.961640000000     0.376290000000     0.314795   
C364     C      0.394930000000     0.717700000000     0.292070000000    -0.0262894  
C365     C      0.461960000000     0.666550000000     0.403930000000    -0.0292995  
C366     C      0.451980000000     0.604050000000     0.403320000000    -0.00671212 
C367     C      0.470970000000     0.648370000000     0.426380000000    -0.00853415 
C368     C      0.436540000000     0.695050000000     0.361300000000    -0.0539203  
C369     C      0.381660000000     0.677480000000     0.345250000000    -0.0537064  
C370     C      0.423570000000     0.670290000000     0.371990000000     0.0621878  
C371     C      0.446140000000     0.624080000000     0.381450000000    -0.02981    
C372     C      0.394220000000     0.702720000000     0.335010000000     0.0640953  
C373     C      0.348680000000     0.714840000000     0.313090000000    -0.00356699 
C374     C      0.421600000000     0.711410000000     0.343670000000    -0.0510106  
C375     C      0.334800000000     0.737080000000     0.295530000000    -0.0575004  
C376     C      0.384350000000     0.741740000000     0.274870000000    -0.00461935 
C377     C      0.395800000000     0.662180000000     0.363950000000    -0.0517809  
C378     C      0.330430000000     0.765850000000     0.308400000000     0.314042   
C379     C      0.198500000000     0.863180000000     0.299540000000    -0.0255181  
C380     C      0.163420000000     0.974980000000     0.391720000000    -0.02889    
C381     C      0.101980000000     0.961020000000     0.396510000000    -0.0092959  
C382     C      0.142750000000     0.997690000000     0.402510000000    -0.0072201  
C383     C      0.183660000000     0.916410000000     0.370770000000    -0.0548192  
C384     C      0.184090000000     0.923240000000     0.319350000000    -0.0567046  
C385     C      0.166710000000     0.938280000000     0.359730000000     0.0627386  
C386     C      0.124650000000     0.940110000000     0.386330000000    -0.028175   
C387     C      0.200620000000     0.901010000000     0.330320000000     0.0654803  
C388     C      0.240580000000     0.895070000000     0.301710000000    -0.00291195 
C389     C      0.200450000000     0.897950000000     0.356090000000    -0.0514937  
C390     C      0.260020000000     0.872400000000     0.288960000000    -0.0558454  
C391     C      0.216220000000     0.839080000000     0.287430000000    -0.00763394 
C392     C      0.167280000000     0.941640000000     0.334010000000    -0.0523564  
C393     C      0.279080000000     0.856560000000     0.307300000000     0.312683   
C394     C      0.395030000000     0.856490000000     0.125710000000    -0.0247686  
C395     C      0.437090000000     0.971150000000     0.037730000000    -0.0300108  
C396     C      0.497520000000     0.956380000000     0.027840000000    -0.00894681 
C397     C      0.457390000000     0.994200000000     0.026910000000    -0.00763543 
C398     C      0.415840000000     0.912080000000     0.056050000000    -0.0547561  
C399     C      0.417660000000     0.915570000000     0.107700000000    -0.0568388  
C400     C      0.434940000000     0.931840000000     0.067460000000     0.061065   
C401     C      0.475270000000     0.935090000000     0.038620000000    -0.0295459  
C402     C      0.398340000000     0.896020000000     0.096290000000     0.0643214  
C403     C      0.358300000000     0.894230000000     0.125480000000    -0.002824   
C404     C      0.397720000000     0.894420000000     0.070400000000    -0.0518797  
C405     C      0.335590000000     0.874010000000     0.137420000000    -0.058221   
C406     C      0.373960000000     0.834320000000     0.136800000000    -0.00874527 
C407     C      0.435690000000     0.933290000000     0.093350000000    -0.0522577  
C408     C      0.313770000000     0.863490000000     0.118610000000     0.313097   
C409     C      0.499140000000     0.994140000000     0.924200000000     0.398032   
C410     C      0.095390000000     0.603000000000     0.935920000000     0.395221   
C411     C      0.490290000000     0.599520000000     0.934560000000     0.393306   
C412     C      0.099290000000     0.998100000000     0.929090000000     0.39722    
C413     C      0.095940000000     0.995660000000     0.495650000000     0.389014   
C414     C      0.489580000000     0.588550000000     0.497640000000     0.385775   
C415     C      0.497110000000     0.995190000000     0.496230000000     0.38177    
C416     C      0.089100000000     0.590860000000     0.503950000000     0.389882   
C417     C      0.337590000000     0.836770000000     0.670480000000     0.388854   
C418     C      0.248800000000     0.749780000000     0.674030000000     0.388893   
C419     C      0.340280000000     0.734680000000     0.683320000000     0.399328   
C420     C      0.240500000000     0.848690000000     0.683950000000     0.397575   
C421     C      0.251960000000     0.839610000000     0.753350000000     0.400374   
C422     C      0.339370000000     0.750450000000     0.751690000000     0.399796   
C423     C      0.350330000000     0.844690000000     0.738570000000     0.400036   
C424     C      0.233580000000     0.740570000000     0.740220000000     0.396193   
C425     C      0.192390000000     0.729860000000     0.629390000000    -0.0250466  
C426     C      0.147500000000     0.611500000000     0.546800000000    -0.0297604  
C427     C      0.087090000000     0.626940000000     0.537850000000    -0.00789146 
C428     C      0.126420000000     0.588710000000     0.536830000000    -0.00778795 
C429     C      0.169900000000     0.671020000000     0.562500000000    -0.0548512  
C430     C      0.169670000000     0.670060000000     0.614230000000    -0.0567591  
C431     C      0.151120000000     0.651980000000     0.575110000000     0.0623079  
C432     C      0.109680000000     0.648310000000     0.547760000000    -0.0296231  
C433     C      0.188580000000     0.688970000000     0.601630000000     0.0650957  
C434     C      0.229430000000     0.692160000000     0.629680000000    -0.00220773 
C435     C      0.188470000000     0.689290000000     0.575730000000    -0.0513542  
C436     C      0.252100000000     0.712990000000     0.640740000000    -0.0580233  
C437     C      0.213630000000     0.752380000000     0.639490000000    -0.00860587 
C438     C      0.151170000000     0.651740000000     0.601010000000    -0.0525155  
C439     C      0.273230000000     0.723670000000     0.621410000000     0.310583   
C440     C      0.107570000000     0.657810000000     0.887220000000    -0.0248552  
C441     C      0.212180000000     0.687990000000     0.787610000000    -0.0295931  
C442     C      0.185140000000     0.734790000000     0.759670000000    -0.00758995 
C443     C      0.221730000000     0.694080000000     0.761000000000    -0.00782603 
C444     C      0.180590000000     0.697590000000     0.836990000000    -0.0550687  
C445     C      0.138130000000     0.654230000000     0.837210000000    -0.0565913  
C446     C      0.170200000000     0.686450000000     0.814400000000     0.0620333  
C447     C      0.176790000000     0.727140000000     0.786330000000    -0.029862   
C448     C      0.148580000000     0.665270000000     0.859810000000     0.0645279  
C449     C      0.147710000000     0.623650000000     0.887020000000    -0.00323285 
C450     C      0.169790000000     0.687050000000     0.859450000000    -0.0513285  
C451     C      0.141080000000     0.613650000000     0.913600000000    -0.056753   
C452     C      0.099500000000     0.650000000000     0.913890000000    -0.00837582 
C453     C      0.148860000000     0.664820000000     0.814760000000    -0.0524135  
C454     C      0.162170000000     0.626660000000     0.931880000000     0.312509   
C455     C      0.111560000000     0.942610000000     0.545790000000    -0.0247     
C456     C      0.222420000000     0.904670000000     0.637570000000    -0.0314899  
C457     C      0.193200000000     0.857970000000     0.664060000000    -0.00657542 
C458     C      0.233090000000     0.895880000000     0.663250000000    -0.00369116 
C459     C      0.158030000000     0.933110000000     0.615210000000    -0.0530388  
C460     C      0.175650000000     0.914060000000     0.568440000000    -0.051268   
C461     C      0.179040000000     0.911310000000     0.613240000000     0.0629182  
C462     C      0.184320000000     0.868250000000     0.638300000000    -0.0295197  
C463     C      0.154680000000     0.935890000000     0.570420000000     0.0647605  
C464     C      0.149310000000     0.979160000000     0.545610000000    -0.00390669 
C465     C      0.145870000000     0.945360000000     0.594010000000    -0.0566531  
C466     C      0.140990000000     0.989840000000     0.519670000000    -0.0563331  
C467     C      0.101430000000     0.950720000000     0.519820000000    -0.00800283 
C468     C      0.187780000000     0.901780000000     0.589640000000    -0.0553768  
C469     C      0.162820000000     0.979760000000     0.500690000000     0.315013   
C470     C      0.390990000000     0.709730000000     0.634640000000    -0.0252203  
C471     C      0.433070000000     0.596800000000     0.546710000000    -0.029267   
C472     C      0.478580000000     0.631200000000     0.523250000000    -0.00862711 
C473     C      0.443660000000     0.588210000000     0.520920000000    -0.00875662 
C474     C      0.398360000000     0.658560000000     0.568900000000    -0.0514004  
C475     C      0.417320000000     0.643490000000     0.616320000000    -0.0529762  
C476     C      0.421160000000     0.638770000000     0.571660000000     0.0618878  
C477     C      0.466150000000     0.637470000000     0.548840000000    -0.0290382  
C478     C      0.395150000000     0.663980000000     0.613540000000     0.0658608  
C479     C      0.353190000000     0.673570000000     0.639340000000    -0.00538762 
C480     C      0.385340000000     0.671070000000     0.589620000000    -0.0572416  
C481     C      0.343900000000     0.685860000000     0.664620000000    -0.0534782  
C482     C      0.384530000000     0.723220000000     0.659760000000    -0.00539609 
C483     C      0.430250000000     0.630860000000     0.595590000000    -0.0545604  
C484     C      0.353830000000     0.666460000000     0.685480000000     0.31328    
C485     C      0.444290000000     0.972870000000     0.876520000000    -0.0268875  
C486     C      0.412610000000     0.864170000000     0.780650000000    -0.0277038  
C487     C      0.356950000000     0.887800000000     0.764320000000    -0.00915822 
C488     C      0.391670000000     0.844010000000     0.767040000000    -0.00846195 
C489     C      0.407470000000     0.899620000000     0.837230000000    -0.0518663  
C490     C      0.452550000000     0.935660000000     0.821340000000    -0.0522459  
C491     C      0.413840000000     0.901630000000     0.811960000000     0.0633257  
C492     C      0.380250000000     0.905070000000     0.777840000000    -0.0270284  
C493     C      0.445910000000     0.933950000000     0.846560000000     0.0649411  
C494     C      0.479030000000     0.934050000000     0.881370000000    -0.00741883 
C495     C      0.423380000000     0.915590000000     0.854490000000    -0.0562018  
C496     C      0.501270000000     0.953670000000     0.894240000000    -0.0546439  
C497     C      0.463660000000     0.994500000000     0.890190000000    -0.0073676  
C498     C      0.436700000000     0.919640000000     0.804100000000    -0.0552173  
C499     C      0.525200000000     0.961640000000     0.876290000000     0.314796   
C500     C      0.394930000000     0.717700000000     0.792070000000    -0.0262895  
C501     C      0.461960000000     0.666550000000     0.903930000000    -0.0292991  
C502     C      0.451980000000     0.604050000000     0.903320000000    -0.00671396 
C503     C      0.470970000000     0.648370000000     0.926380000000    -0.00852538 
C504     C      0.436540000000     0.695050000000     0.861300000000    -0.0539189  
C505     C      0.381660000000     0.677480000000     0.845250000000    -0.0537023  
C506     C      0.423570000000     0.670290000000     0.871990000000     0.0621955  
C507     C      0.446140000000     0.624080000000     0.881450000000    -0.0298073  
C508     C      0.394220000000     0.702720000000     0.835010000000     0.0640969  
C509     C      0.348680000000     0.714840000000     0.813090000000    -0.00356898 
C510     C      0.421600000000     0.711410000000     0.843670000000    -0.0510058  
C511     C      0.334800000000     0.737080000000     0.795530000000    -0.0575053  
C512     C      0.384350000000     0.741740000000     0.774870000000    -0.00462065 
C513     C      0.395800000000     0.662180000000     0.863950000000    -0.0517773  
C514     C      0.330430000000     0.765850000000     0.808400000000     0.314043   
C515     C      0.198500000000     0.863180000000     0.799550000000    -0.025464   
C516     C      0.163420000000     0.974980000000     0.891720000000    -0.0288928  
C517     C      0.101980000000     0.961020000000     0.896510000000    -0.00929355 
C518     C      0.142750000000     0.997690000000     0.902510000000    -0.00721814 
C519     C      0.183660000000     0.916410000000     0.870770000000    -0.0548158  
C520     C      0.184090000000     0.923240000000     0.819350000000    -0.0567056  
C521     C      0.166710000000     0.938280000000     0.859730000000     0.06274    
C522     C      0.124650000000     0.940110000000     0.886330000000    -0.0281778  
C523     C      0.200620000000     0.901010000000     0.830320000000     0.0654823  
C524     C      0.240580000000     0.895070000000     0.801710000000    -0.00291274 
C525     C      0.200450000000     0.897950000000     0.856090000000    -0.0514894  
C526     C      0.260020000000     0.872400000000     0.788960000000    -0.0558471  
C527     C      0.216220000000     0.839080000000     0.787430000000    -0.00766304 
C528     C      0.167280000000     0.941640000000     0.834010000000    -0.0523567  
C529     C      0.279080000000     0.856560000000     0.807300000000     0.312685   
C530     C      0.395030000000     0.856490000000     0.625710000000    -0.0247674  
C531     C      0.437090000000     0.971150000000     0.537730000000    -0.0300114  
C532     C      0.497520000000     0.956380000000     0.527840000000    -0.00895369 
C533     C      0.457390000000     0.994200000000     0.526910000000    -0.00763596 
C534     C      0.415840000000     0.912080000000     0.556050000000    -0.054761   
C535     C      0.417660000000     0.915570000000     0.607700000000    -0.0568564  
C536     C      0.434940000000     0.931840000000     0.567460000000     0.0610726  
C537     C      0.475270000000     0.935090000000     0.538620000000    -0.0295441  
C538     C      0.398340000000     0.896020000000     0.596300000000     0.0643303  
C539     C      0.358300000000     0.894230000000     0.625480000000    -0.00281218 
C540     C      0.397720000000     0.894420000000     0.570400000000    -0.0518381  
C541     C      0.335590000000     0.874010000000     0.637420000000    -0.0582607  
C542     C      0.373960000000     0.834320000000     0.636800000000    -0.00874864 
C543     C      0.435690000000     0.933290000000     0.593350000000    -0.0522491  
C544     C      0.313770000000     0.863490000000     0.618610000000     0.313167   
C545     C      0.999140000000     0.494140000000     0.424200000000     0.397635   
C546     C      0.595390000000     0.103000000000     0.435920000000     0.395348   
C547     C      0.990290000000     0.099520000000     0.434570000000     0.393353   
C548     C      0.599290000000     0.498100000000     0.429090000000     0.396804   
C549     C      0.595940000000     0.495660000000     0.995650000000     0.388777   
C550     C      0.989580000000     0.088550000000     0.997640000000     0.386111   
C551     C      0.997110000000     0.495190000000     0.996230000000     0.381618   
C552     C      0.589100000000     0.090860000000     0.003950000000     0.389128   
C553     C      0.837590000000     0.336770000000     0.170480000000     0.388935   
C554     C      0.748800000000     0.249780000000     0.174030000000     0.388902   
C555     C      0.840280000000     0.234680000000     0.183320000000     0.399113   
C556     C      0.740500000000     0.348690000000     0.183950000000     0.397577   
C557     C      0.751960000000     0.339610000000     0.253350000000     0.400374   
C558     C      0.839370000000     0.250450000000     0.251690000000     0.399917   
C559     C      0.850330000000     0.344690000000     0.238570000000     0.399973   
C560     C      0.733580000000     0.240570000000     0.240220000000     0.396126   
C561     C      0.692390000000     0.229860000000     0.129390000000    -0.0250459  
C562     C      0.647500000000     0.111500000000     0.046800000000    -0.029733   
C563     C      0.587090000000     0.126940000000     0.037850000000    -0.00788308 
C564     C      0.626420000000     0.088710000000     0.036830000000    -0.0078715  
C565     C      0.669900000000     0.171020000000     0.062500000000    -0.0548696  
C566     C      0.669670000000     0.170060000000     0.114230000000    -0.0567906  
C567     C      0.651120000000     0.151980000000     0.075110000000     0.0622941  
C568     C      0.609680000000     0.148310000000     0.047760000000    -0.029625   
C569     C      0.688580000000     0.188970000000     0.101640000000     0.0650976  
C570     C      0.729430000000     0.192160000000     0.129680000000    -0.00223387 
C571     C      0.688470000000     0.189290000000     0.075730000000    -0.0513397  
C572     C      0.752100000000     0.212990000000     0.140740000000    -0.0579047  
C573     C      0.713630000000     0.252380000000     0.139490000000    -0.00860206 
C574     C      0.651170000000     0.151740000000     0.101010000000    -0.0525173  
C575     C      0.773230000000     0.223670000000     0.121400000000     0.310479   
C576     C      0.607580000000     0.157810000000     0.387220000000    -0.0247387  
C577     C      0.712180000000     0.187990000000     0.287610000000    -0.0296655  
C578     C      0.685140000000     0.234790000000     0.259670000000    -0.00767252 
C579     C      0.721730000000     0.194080000000     0.261000000000    -0.00775184 
C580     C      0.680590000000     0.197580000000     0.336990000000    -0.0549871  
C581     C      0.638130000000     0.154230000000     0.337210000000    -0.0566185  
C582     C      0.670210000000     0.186450000000     0.314400000000     0.0620224  
C583     C      0.676790000000     0.227140000000     0.286330000000    -0.0298428  
C584     C      0.648580000000     0.165270000000     0.359810000000     0.0645459  
C585     C      0.647710000000     0.123650000000     0.387020000000    -0.00322698 
C586     C      0.669790000000     0.187050000000     0.359450000000    -0.0513938  
C587     C      0.641080000000     0.113650000000     0.413600000000    -0.0567539  
C588     C      0.599500000000     0.150000000000     0.413890000000    -0.00841941 
C589     C      0.648860000000     0.164820000000     0.314760000000    -0.0523918  
C590     C      0.662170000000     0.126660000000     0.431880000000     0.312479   
C591     C      0.611560000000     0.442610000000     0.045790000000    -0.0246964  
C592     C      0.722410000000     0.404670000000     0.137570000000    -0.0313636  
C593     C      0.693200000000     0.357970000000     0.164060000000    -0.00658315 
C594     C      0.733090000000     0.395880000000     0.163250000000    -0.00377113 
C595     C      0.658030000000     0.433110000000     0.115210000000    -0.0531284  
C596     C      0.675640000000     0.414060000000     0.068440000000    -0.0513158  
C597     C      0.679040000000     0.411310000000     0.113240000000     0.063019   
C598     C      0.684320000000     0.368250000000     0.138300000000    -0.0295123  
C599     C      0.654680000000     0.435890000000     0.070420000000     0.0647352  
C600     C      0.649310000000     0.479160000000     0.045610000000    -0.00382414 
C601     C      0.645870000000     0.445360000000     0.094010000000    -0.0566038  
C602     C      0.640990000000     0.489840000000     0.019670000000    -0.0567203  
C603     C      0.601430000000     0.450720000000     0.019820000000    -0.00802195 
C604     C      0.687780000000     0.401780000000     0.089650000000    -0.0554495  
C605     C      0.662820000000     0.479760000000     0.000690000000     0.31441    
C606     C      0.890990000000     0.209730000000     0.134640000000    -0.0252261  
C607     C      0.933070000000     0.096800000000     0.046710000000    -0.0293162  
C608     C      0.978580000000     0.131200000000     0.023250000000    -0.00854387 
C609     C      0.943670000000     0.088210000000     0.020920000000    -0.00864228 
C610     C      0.898360000000     0.158550000000     0.068900000000    -0.0514601  
C611     C      0.917330000000     0.143490000000     0.116320000000    -0.0530072  
C612     C      0.921160000000     0.138770000000     0.071660000000     0.0619301  
C613     C      0.966150000000     0.137470000000     0.048840000000    -0.0290781  
C614     C      0.895150000000     0.163980000000     0.113540000000     0.0658245  
C615     C      0.853190000000     0.173570000000     0.139340000000    -0.00532817 
C616     C      0.885340000000     0.171070000000     0.089620000000    -0.0572271  
C617     C      0.843900000000     0.185860000000     0.164620000000    -0.0534982  
C618     C      0.884530000000     0.223220000000     0.159760000000    -0.00540474 
C619     C      0.930250000000     0.130860000000     0.095580000000    -0.0545923  
C620     C      0.853830000000     0.166460000000     0.185480000000     0.313257   
C621     C      0.944290000000     0.472880000000     0.376520000000    -0.0265794  
C622     C      0.912610000000     0.364170000000     0.280650000000    -0.0276817  
C623     C      0.856950000000     0.387800000000     0.264320000000    -0.0091076  
C624     C      0.891670000000     0.344010000000     0.267040000000    -0.00851752 
C625     C      0.907470000000     0.399620000000     0.337230000000    -0.0519003  
C626     C      0.952540000000     0.435660000000     0.321340000000    -0.0521682  
C627     C      0.913840000000     0.401630000000     0.311960000000     0.0633185  
C628     C      0.880250000000     0.405070000000     0.277840000000    -0.0270403  
C629     C      0.945910000000     0.433950000000     0.346560000000     0.064849   
C630     C      0.979030000000     0.434050000000     0.381370000000    -0.00732894 
C631     C      0.923370000000     0.415590000000     0.354480000000    -0.0561038  
C632     C      0.001270000000     0.453670000000     0.394240000000    -0.0548103  
C633     C      0.963660000000     0.494500000000     0.390190000000    -0.00857653 
C634     C      0.936710000000     0.419640000000     0.304100000000    -0.0552523  
C635     C      0.025200000000     0.461640000000     0.376290000000     0.315056   
C636     C      0.894940000000     0.217700000000     0.292070000000    -0.0263192  
C637     C      0.961960000000     0.166550000000     0.403930000000    -0.0293188  
C638     C      0.951980000000     0.104050000000     0.403320000000    -0.00676424 
C639     C      0.970970000000     0.148370000000     0.426380000000    -0.0084739  
C640     C      0.936540000000     0.195050000000     0.361300000000    -0.0539195  
C641     C      0.881660000000     0.177480000000     0.345250000000    -0.0537133  
C642     C      0.923570000000     0.170290000000     0.371990000000     0.0621845  
C643     C      0.946140000000     0.124080000000     0.381450000000    -0.0297905  
C644     C      0.894220000000     0.202720000000     0.335010000000     0.0640951  
C645     C      0.848680000000     0.214840000000     0.313090000000    -0.00354938 
C646     C      0.921600000000     0.211410000000     0.343670000000    -0.0510089  
C647     C      0.834800000000     0.237080000000     0.295530000000    -0.0575272  
C648     C      0.884360000000     0.241740000000     0.274870000000    -0.00471111 
C649     C      0.895800000000     0.162180000000     0.363950000000    -0.0517854  
C650     C      0.830430000000     0.265850000000     0.308400000000     0.314161   
C651     C      0.698500000000     0.363190000000     0.299540000000    -0.0254551  
C652     C      0.663420000000     0.474980000000     0.391720000000    -0.0285652  
C653     C      0.601980000000     0.461020000000     0.396510000000    -0.00935234 
C654     C      0.642750000000     0.497690000000     0.402510000000    -0.00838255 
C655     C      0.683660000000     0.416410000000     0.370770000000    -0.0547994  
C656     C      0.684090000000     0.423240000000     0.319350000000    -0.0567343  
C657     C      0.666710000000     0.438280000000     0.359730000000     0.0627103  
C658     C      0.624650000000     0.440110000000     0.386330000000    -0.0281507  
C659     C      0.700620000000     0.401010000000     0.330320000000     0.0654992  
C660     C      0.740580000000     0.395070000000     0.301710000000    -0.0029057  
C661     C      0.700450000000     0.397950000000     0.356090000000    -0.0515608  
C662     C      0.760020000000     0.372400000000     0.288960000000    -0.0558579  
C663     C      0.716220000000     0.339080000000     0.287430000000    -0.00766239 
C664     C      0.667280000000     0.441640000000     0.334010000000    -0.0523639  
C665     C      0.779080000000     0.356570000000     0.307300000000     0.312573   
C666     C      0.895030000000     0.356490000000     0.125710000000    -0.0247837  
C667     C      0.937090000000     0.471150000000     0.037730000000    -0.0296785  
C668     C      0.997520000000     0.456380000000     0.027840000000    -0.00882798 
C669     C      0.957390000000     0.494200000000     0.026910000000    -0.00882324 
C670     C      0.915840000000     0.412080000000     0.056050000000    -0.0547603  
C671     C      0.917660000000     0.415570000000     0.107700000000    -0.0568524  
C672     C      0.934940000000     0.431840000000     0.067460000000     0.0610499  
C673     C      0.975280000000     0.435090000000     0.038620000000    -0.0296147  
C674     C      0.898340000000     0.396020000000     0.096290000000     0.0643159  
C675     C      0.858300000000     0.394230000000     0.125480000000    -0.00281796 
C676     C      0.897720000000     0.394420000000     0.070400000000    -0.0518886  
C677     C      0.835590000000     0.374010000000     0.137420000000    -0.0582233  
C678     C      0.873960000000     0.334320000000     0.136800000000    -0.00874009 
C679     C      0.935690000000     0.433290000000     0.093350000000    -0.0522712  
C680     C      0.813770000000     0.363490000000     0.118610000000     0.313092   
C681     C      0.999140000000     0.494140000000     0.924200000000     0.39759    
C682     C      0.595390000000     0.103000000000     0.935920000000     0.395358   
C683     C      0.990290000000     0.099520000000     0.934560000000     0.393283   
C684     C      0.599290000000     0.498100000000     0.929090000000     0.396806   
C685     C      0.595940000000     0.495660000000     0.495650000000     0.388492   
C686     C      0.989580000000     0.088550000000     0.497640000000     0.385829   
C687     C      0.997110000000     0.495190000000     0.496230000000     0.381285   
C688     C      0.589100000000     0.090860000000     0.503950000000     0.38982    
C689     C      0.837590000000     0.336770000000     0.670480000000     0.388852   
C690     C      0.748800000000     0.249780000000     0.674030000000     0.388898   
C691     C      0.840280000000     0.234680000000     0.683320000000     0.399112   
C692     C      0.740500000000     0.348690000000     0.683950000000     0.397575   
C693     C      0.751960000000     0.339610000000     0.753350000000     0.400375   
C694     C      0.839370000000     0.250450000000     0.751690000000     0.399917   
C695     C      0.850330000000     0.344690000000     0.738570000000     0.399976   
C696     C      0.733580000000     0.240570000000     0.740220000000     0.396125   
C697     C      0.692390000000     0.229860000000     0.629390000000    -0.0250449  
C698     C      0.647500000000     0.111500000000     0.546800000000    -0.0297462  
C699     C      0.587090000000     0.126940000000     0.537850000000    -0.00784367 
C700     C      0.626420000000     0.088710000000     0.536830000000    -0.00783195 
C701     C      0.669900000000     0.171020000000     0.562500000000    -0.0548522  
C702     C      0.669670000000     0.170060000000     0.614230000000    -0.0567676  
C703     C      0.651120000000     0.151980000000     0.575110000000     0.0622988  
C704     C      0.609680000000     0.148310000000     0.547760000000    -0.029638   
C705     C      0.688580000000     0.188970000000     0.601630000000     0.0650951  
C706     C      0.729430000000     0.192160000000     0.629680000000    -0.00221504 
C707     C      0.688470000000     0.189290000000     0.575730000000    -0.0513595  
C708     C      0.752100000000     0.212990000000     0.640740000000    -0.0579495  
C709     C      0.713630000000     0.252380000000     0.639490000000    -0.00860448 
C710     C      0.651170000000     0.151740000000     0.601010000000    -0.0525256  
C711     C      0.773230000000     0.223670000000     0.621410000000     0.31037    
C712     C      0.607580000000     0.157810000000     0.887220000000    -0.0247365  
C713     C      0.712180000000     0.187990000000     0.787610000000    -0.0296655  
C714     C      0.685140000000     0.234790000000     0.759670000000    -0.00768301 
C715     C      0.721730000000     0.194080000000     0.761000000000    -0.00775268 
C716     C      0.680590000000     0.197580000000     0.836990000000    -0.0549844  
C717     C      0.638130000000     0.154230000000     0.837210000000    -0.0566203  
C718     C      0.670210000000     0.186450000000     0.814400000000     0.0620212  
C719     C      0.676790000000     0.227140000000     0.786330000000    -0.0298036  
C720     C      0.648580000000     0.165270000000     0.859810000000     0.0645488  
C721     C      0.647710000000     0.123650000000     0.887020000000    -0.00322951 
C722     C      0.669790000000     0.187050000000     0.859450000000    -0.0513924  
C723     C      0.641080000000     0.113650000000     0.913600000000    -0.0567477  
C724     C      0.599500000000     0.150000000000     0.913890000000    -0.00842338 
C725     C      0.648860000000     0.164820000000     0.814760000000    -0.052392   
C726     C      0.662170000000     0.126660000000     0.931880000000     0.312484   
C727     C      0.611560000000     0.442610000000     0.545790000000    -0.0246729  
C728     C      0.722410000000     0.404670000000     0.637570000000    -0.0313727  
C729     C      0.693200000000     0.357970000000     0.664060000000    -0.00657768 
C730     C      0.733090000000     0.395880000000     0.663250000000    -0.00376463 
C731     C      0.658030000000     0.433110000000     0.615210000000    -0.0530707  
C732     C      0.675640000000     0.414060000000     0.568440000000    -0.0513246  
C733     C      0.679040000000     0.411310000000     0.613240000000     0.0629096  
C734     C      0.684320000000     0.368250000000     0.638300000000    -0.0295181  
C735     C      0.654680000000     0.435890000000     0.570420000000     0.064763   
C736     C      0.649310000000     0.479160000000     0.545610000000    -0.00374551 
C737     C      0.645870000000     0.445360000000     0.594010000000    -0.0566339  
C738     C      0.640990000000     0.489840000000     0.519670000000    -0.0569176  
C739     C      0.601430000000     0.450720000000     0.519820000000    -0.00804427 
C740     C      0.687780000000     0.401780000000     0.589640000000    -0.0553696  
C741     C      0.662820000000     0.479760000000     0.500690000000     0.315158   
C742     C      0.890990000000     0.209730000000     0.634640000000    -0.025229   
C743     C      0.933070000000     0.096800000000     0.546710000000    -0.0293087  
C744     C      0.978580000000     0.131200000000     0.523250000000    -0.00855747 
C745     C      0.943670000000     0.088210000000     0.520920000000    -0.00865301 
C746     C      0.898360000000     0.158550000000     0.568900000000    -0.0514369  
C747     C      0.917330000000     0.143490000000     0.616320000000    -0.0530028  
C748     C      0.921160000000     0.138770000000     0.571660000000     0.0618976  
C749     C      0.966150000000     0.137470000000     0.548840000000    -0.0290591  
C750     C      0.895150000000     0.163980000000     0.613540000000     0.0658253  
C751     C      0.853190000000     0.173570000000     0.639340000000    -0.00533088 
C752     C      0.885340000000     0.171070000000     0.589620000000    -0.0572273  
C753     C      0.843900000000     0.185860000000     0.664620000000    -0.0534982  
C754     C      0.884530000000     0.223220000000     0.659760000000    -0.00540396 
C755     C      0.930250000000     0.130860000000     0.595590000000    -0.0545575  
C756     C      0.853830000000     0.166460000000     0.685480000000     0.313256   
C757     C      0.944290000000     0.472880000000     0.876520000000    -0.0265787  
C758     C      0.912610000000     0.364170000000     0.780650000000    -0.0276824  
C759     C      0.856950000000     0.387800000000     0.764320000000    -0.00910812 
C760     C      0.891670000000     0.344010000000     0.767040000000    -0.00851805 
C761     C      0.907470000000     0.399620000000     0.837230000000    -0.0518694  
C762     C      0.952540000000     0.435660000000     0.821340000000    -0.0521876  
C763     C      0.913840000000     0.401630000000     0.811960000000     0.063305   
C764     C      0.880250000000     0.405070000000     0.777840000000    -0.027041   
C765     C      0.945910000000     0.433950000000     0.846560000000     0.0648831  
C766     C      0.979030000000     0.434050000000     0.881370000000    -0.0073304  
C767     C      0.923370000000     0.415590000000     0.854490000000    -0.0561851  
C768     C      0.001270000000     0.453670000000     0.894240000000    -0.0548095  
C769     C      0.963660000000     0.494500000000     0.890190000000    -0.0085806  
C770     C      0.936710000000     0.419640000000     0.804100000000    -0.05524    
C771     C      0.025200000000     0.461640000000     0.876290000000     0.315056   
C772     C      0.894940000000     0.217700000000     0.792070000000    -0.0263193  
C773     C      0.961960000000     0.166550000000     0.903930000000    -0.0293184  
C774     C      0.951980000000     0.104050000000     0.903320000000    -0.00676612 
C775     C      0.970970000000     0.148370000000     0.926380000000    -0.00846515 
C776     C      0.936540000000     0.195050000000     0.861300000000    -0.0539182  
C777     C      0.881660000000     0.177480000000     0.845250000000    -0.0537092  
C778     C      0.923570000000     0.170290000000     0.871990000000     0.0621922  
C779     C      0.946140000000     0.124080000000     0.881450000000    -0.0297878  
C780     C      0.894220000000     0.202720000000     0.835010000000     0.0640967  
C781     C      0.848680000000     0.214840000000     0.813090000000    -0.00355136 
C782     C      0.921600000000     0.211410000000     0.843670000000    -0.0510042  
C783     C      0.834800000000     0.237080000000     0.795530000000    -0.0575321  
C784     C      0.884360000000     0.241740000000     0.774870000000    -0.00471241 
C785     C      0.895800000000     0.162180000000     0.863950000000    -0.0517818  
C786     C      0.830430000000     0.265850000000     0.808400000000     0.314162   
C787     C      0.698500000000     0.363190000000     0.799550000000    -0.025401   
C788     C      0.663420000000     0.474980000000     0.891720000000    -0.0285681  
C789     C      0.601980000000     0.461020000000     0.896510000000    -0.00934997 
C790     C      0.642750000000     0.497690000000     0.902510000000    -0.00838012 
C791     C      0.683660000000     0.416410000000     0.870770000000    -0.054796   
C792     C      0.684090000000     0.423240000000     0.819350000000    -0.0567352  
C793     C      0.666710000000     0.438280000000     0.859730000000     0.0627117  
C794     C      0.624650000000     0.440110000000     0.886330000000    -0.0281535  
C795     C      0.700620000000     0.401010000000     0.830320000000     0.0655012  
C796     C      0.740580000000     0.395070000000     0.801710000000    -0.00290649 
C797     C      0.700450000000     0.397950000000     0.856090000000    -0.0515564  
C798     C      0.760020000000     0.372400000000     0.788960000000    -0.0558596  
C799     C      0.716220000000     0.339080000000     0.787430000000    -0.00769146 
C800     C      0.667280000000     0.441640000000     0.834010000000    -0.0523642  
C801     C      0.779080000000     0.356570000000     0.807300000000     0.312574   
C802     C      0.895030000000     0.356490000000     0.625710000000    -0.0247825  
C803     C      0.937090000000     0.471150000000     0.537730000000    -0.029679   
C804     C      0.997520000000     0.456380000000     0.527840000000    -0.00883621 
C805     C      0.957390000000     0.494200000000     0.526910000000    -0.00882423 
C806     C      0.915840000000     0.412080000000     0.556050000000    -0.0547651  
C807     C      0.917660000000     0.415570000000     0.607700000000    -0.0568701  
C808     C      0.934940000000     0.431840000000     0.567460000000     0.0610575  
C809     C      0.975280000000     0.435090000000     0.538620000000    -0.0296125  
C810     C      0.898340000000     0.396020000000     0.596300000000     0.0643248  
C811     C      0.858300000000     0.394230000000     0.625480000000    -0.00280614 
C812     C      0.897720000000     0.394420000000     0.570400000000    -0.0518471  
C813     C      0.835590000000     0.374010000000     0.637420000000    -0.058263   
C814     C      0.873960000000     0.334320000000     0.636800000000    -0.00874346 
C815     C      0.935690000000     0.433290000000     0.593350000000    -0.0522625  
C816     C      0.813770000000     0.363490000000     0.618610000000     0.313162   
C817     C      0.999140000000     0.994140000000     0.424200000000     0.39817    
C818     C      0.595390000000     0.603000000000     0.435920000000     0.395357   
C819     C      0.990290000000     0.599520000000     0.434570000000     0.393433   
C820     C      0.599290000000     0.998100000000     0.429090000000     0.397218   
C821     C      0.595940000000     0.995660000000     0.995650000000     0.389297   
C822     C      0.989580000000     0.588550000000     0.997640000000     0.386123   
C823     C      0.997110000000     0.995190000000     0.996230000000     0.382156   
C824     C      0.589100000000     0.590860000000     0.003950000000     0.389193   
C825     C      0.837590000000     0.836770000000     0.170480000000     0.388938   
C826     C      0.748800000000     0.749780000000     0.174030000000     0.3889     
C827     C      0.840280000000     0.734680000000     0.183320000000     0.399328   
C828     C      0.740500000000     0.848690000000     0.183950000000     0.397574   
C829     C      0.751960000000     0.839610000000     0.253350000000     0.400373   
C830     C      0.839370000000     0.750450000000     0.251690000000     0.399792   
C831     C      0.850330000000     0.844690000000     0.238570000000     0.400033   
C832     C      0.733580000000     0.740570000000     0.240220000000     0.396193   
C833     C      0.692390000000     0.729860000000     0.129390000000    -0.0250482  
C834     C      0.647500000000     0.611500000000     0.046800000000    -0.0297473  
C835     C      0.587090000000     0.626940000000     0.037850000000    -0.00793098 
C836     C      0.626420000000     0.588710000000     0.036830000000    -0.00782727 
C837     C      0.669900000000     0.671020000000     0.062500000000    -0.0548682  
C838     C      0.669670000000     0.670060000000     0.114230000000    -0.0567804  
C839     C      0.651120000000     0.651980000000     0.075110000000     0.0623047  
C840     C      0.609680000000     0.648310000000     0.047760000000    -0.02961    
C841     C      0.688580000000     0.688970000000     0.101640000000     0.0650997  
C842     C      0.729430000000     0.692160000000     0.129680000000    -0.00223833 
C843     C      0.688470000000     0.689290000000     0.075730000000    -0.0513342  
C844     C      0.752100000000     0.712990000000     0.140740000000    -0.0579041  
C845     C      0.713630000000     0.752380000000     0.139490000000    -0.00860209 
C846     C      0.651170000000     0.651740000000     0.101010000000    -0.0525092  
C847     C      0.773230000000     0.723670000000     0.121400000000     0.310481   
C848     C      0.607580000000     0.657810000000     0.387220000000    -0.0247437  
C849     C      0.712180000000     0.687990000000     0.287610000000    -0.0296452  
C850     C      0.685140000000     0.734790000000     0.259670000000    -0.00762    
C851     C      0.721730000000     0.694080000000     0.261000000000    -0.00780927 
C852     C      0.680590000000     0.697590000000     0.336990000000    -0.0550986  
C853     C      0.638130000000     0.654230000000     0.337210000000    -0.0565901  
C854     C      0.670210000000     0.686450000000     0.314400000000     0.0620666  
C855     C      0.676790000000     0.727140000000     0.286330000000    -0.0298746  
C856     C      0.648580000000     0.665270000000     0.359810000000     0.0645219  
C857     C      0.647710000000     0.623650000000     0.387020000000    -0.00323495 
C858     C      0.669790000000     0.687050000000     0.359450000000    -0.0513182  
C859     C      0.641080000000     0.613650000000     0.413600000000    -0.0567446  
C860     C      0.599500000000     0.650000000000     0.413890000000    -0.00841507 
C861     C      0.648860000000     0.664820000000     0.314760000000    -0.0524058  
C862     C      0.662170000000     0.626660000000     0.431880000000     0.312475   
C863     C      0.611560000000     0.942610000000     0.045790000000    -0.0247183  
C864     C      0.722410000000     0.904670000000     0.137570000000    -0.0313552  
C865     C      0.693200000000     0.857970000000     0.164060000000    -0.00658538 
C866     C      0.733090000000     0.895880000000     0.163250000000    -0.00379667 
C867     C      0.658030000000     0.933110000000     0.115210000000    -0.0531128  
C868     C      0.675640000000     0.914060000000     0.068440000000    -0.0512794  
C869     C      0.679040000000     0.911310000000     0.113240000000     0.0630352  
C870     C      0.684320000000     0.868250000000     0.138300000000    -0.0295112  
C871     C      0.654680000000     0.935890000000     0.070420000000     0.0647383  
C872     C      0.649310000000     0.979160000000     0.045610000000    -0.00398359 
C873     C      0.645870000000     0.945360000000     0.094010000000    -0.0565838  
C874     C      0.640990000000     0.989840000000     0.019670000000    -0.0561394  
C875     C      0.601430000000     0.950720000000     0.019820000000    -0.0079879  
C876     C      0.687780000000     0.901780000000     0.089650000000    -0.0554578  
C877     C      0.662820000000     0.979760000000     0.000690000000     0.314268   
C878     C      0.890990000000     0.709730000000     0.134640000000    -0.0252306  
C879     C      0.933070000000     0.596800000000     0.046710000000    -0.0293231  
C880     C      0.978580000000     0.631200000000     0.023250000000    -0.00854358 
C881     C      0.943670000000     0.588210000000     0.020920000000    -0.00863544 
C882     C      0.898360000000     0.658560000000     0.068900000000    -0.0514486  
C883     C      0.917330000000     0.643490000000     0.116320000000    -0.0529959  
C884     C      0.921160000000     0.638770000000     0.071660000000     0.0619229  
C885     C      0.966150000000     0.637470000000     0.048840000000    -0.0290812  
C886     C      0.895150000000     0.663980000000     0.113540000000     0.0658293  
C887     C      0.853190000000     0.673570000000     0.139340000000    -0.00533344 
C888     C      0.885340000000     0.671070000000     0.089620000000    -0.0572155  
C889     C      0.843900000000     0.685860000000     0.164620000000    -0.0534941  
C890     C      0.884530000000     0.723220000000     0.159760000000    -0.00539349 
C891     C      0.930250000000     0.630860000000     0.095580000000    -0.0545757  
C892     C      0.853830000000     0.666460000000     0.185480000000     0.313286   
C893     C      0.944290000000     0.972870000000     0.376520000000    -0.0268538  
C894     C      0.912610000000     0.864170000000     0.280650000000    -0.0277049  
C895     C      0.856950000000     0.887800000000     0.264320000000    -0.00915699 
C896     C      0.891670000000     0.844010000000     0.267040000000    -0.0084605  
C897     C      0.907470000000     0.899620000000     0.337230000000    -0.0518885  
C898     C      0.952540000000     0.935660000000     0.321340000000    -0.0521567  
C899     C      0.913840000000     0.901630000000     0.311960000000     0.0633237  
C900     C      0.880250000000     0.905070000000     0.277840000000    -0.0270293  
C901     C      0.945910000000     0.933950000000     0.346560000000     0.0648658  
C902     C      0.979030000000     0.934050000000     0.381370000000    -0.00738746 
C903     C      0.923370000000     0.915590000000     0.354480000000    -0.056098   
C904     C      0.001270000000     0.953670000000     0.394240000000    -0.0546664  
C905     C      0.963660000000     0.994500000000     0.390190000000    -0.00745705 
C906     C      0.936710000000     0.919640000000     0.304100000000    -0.0552311  
C907     C      0.025200000000     0.961640000000     0.376290000000     0.314796   
C908     C      0.894940000000     0.717700000000     0.292070000000    -0.0263218  
C909     C      0.961960000000     0.666550000000     0.403930000000    -0.0293014  
C910     C      0.951980000000     0.604050000000     0.403320000000    -0.00670847 
C911     C      0.970970000000     0.648370000000     0.426380000000    -0.00852959 
C912     C      0.936540000000     0.695050000000     0.361300000000    -0.0539181  
C913     C      0.881660000000     0.677480000000     0.345250000000    -0.053705   
C914     C      0.923570000000     0.670290000000     0.371990000000     0.0621901  
C915     C      0.946140000000     0.624080000000     0.381450000000    -0.0298117  
C916     C      0.894220000000     0.702720000000     0.335010000000     0.0640962  
C917     C      0.848680000000     0.714840000000     0.313090000000    -0.00356544 
C918     C      0.921600000000     0.711410000000     0.343670000000    -0.0510073  
C919     C      0.834800000000     0.737080000000     0.295530000000    -0.0575011  
C920     C      0.884360000000     0.741740000000     0.274870000000    -0.00471644 
C921     C      0.895800000000     0.662180000000     0.363950000000    -0.0517805  
C922     C      0.830430000000     0.765850000000     0.308400000000     0.314042   
C923     C      0.698500000000     0.863180000000     0.299540000000    -0.0254906  
C924     C      0.663420000000     0.974980000000     0.391720000000    -0.0288879  
C925     C      0.601980000000     0.961020000000     0.396510000000    -0.00929605 
C926     C      0.642750000000     0.997690000000     0.402510000000    -0.00722799 
C927     C      0.683660000000     0.916410000000     0.370770000000    -0.054819   
C928     C      0.684090000000     0.923240000000     0.319350000000    -0.0567047  
C929     C      0.666710000000     0.938280000000     0.359730000000     0.0627387  
C930     C      0.624650000000     0.940110000000     0.386330000000    -0.028175   
C931     C      0.700620000000     0.901010000000     0.330320000000     0.0654811  
C932     C      0.740580000000     0.895070000000     0.301710000000    -0.00291051 
C933     C      0.700450000000     0.897950000000     0.356090000000    -0.0514939  
C934     C      0.760020000000     0.872400000000     0.288960000000    -0.0558458  
C935     C      0.716220000000     0.839080000000     0.287430000000    -0.00764121 
C936     C      0.667280000000     0.941640000000     0.334010000000    -0.0523561  
C937     C      0.779080000000     0.856560000000     0.307300000000     0.312683   
C938     C      0.895030000000     0.856490000000     0.125710000000    -0.024805   
C939     C      0.937090000000     0.971150000000     0.037730000000    -0.0299964  
C940     C      0.997520000000     0.956380000000     0.027840000000    -0.00879209 
C941     C      0.957390000000     0.994200000000     0.026910000000    -0.00767775 
C942     C      0.915840000000     0.912080000000     0.056050000000    -0.0547546  
C943     C      0.917660000000     0.915570000000     0.107700000000    -0.0568355  
C944     C      0.934940000000     0.931840000000     0.067460000000     0.0610671  
C945     C      0.975280000000     0.935090000000     0.038620000000    -0.0296326  
C946     C      0.898340000000     0.896020000000     0.096290000000     0.0643216  
C947     C      0.858300000000     0.894230000000     0.125480000000    -0.0028249  
C948     C      0.897720000000     0.894420000000     0.070400000000    -0.0518777  
C949     C      0.835590000000     0.874010000000     0.137420000000    -0.0582201  
C950     C      0.873960000000     0.834320000000     0.136800000000    -0.00873424 
C951     C      0.935690000000     0.933290000000     0.093350000000    -0.0522547  
C952     C      0.813770000000     0.863490000000     0.118610000000     0.313097   
C953     C      0.999140000000     0.994140000000     0.924200000000     0.398124   
C954     C      0.595390000000     0.603000000000     0.935920000000     0.395367   
C955     C      0.990290000000     0.599520000000     0.934560000000     0.393363   
C956     C      0.599290000000     0.998100000000     0.929090000000     0.397219   
C957     C      0.595940000000     0.995660000000     0.495650000000     0.389014   
C958     C      0.989580000000     0.588550000000     0.497640000000     0.38584    
C959     C      0.997110000000     0.995190000000     0.496230000000     0.381824   
C960     C      0.589100000000     0.590860000000     0.503950000000     0.389887   
C961     C      0.837590000000     0.836770000000     0.670480000000     0.388854   
C962     C      0.748800000000     0.749780000000     0.674030000000     0.388896   
C963     C      0.840280000000     0.734680000000     0.683320000000     0.399327   
C964     C      0.740500000000     0.848690000000     0.683950000000     0.397572   
C965     C      0.751960000000     0.839610000000     0.753350000000     0.400374   
C966     C      0.839370000000     0.750450000000     0.751690000000     0.399792   
C967     C      0.850330000000     0.844690000000     0.738570000000     0.400036   
C968     C      0.733580000000     0.740570000000     0.740220000000     0.396191   
C969     C      0.692390000000     0.729860000000     0.629390000000    -0.0250473  
C970     C      0.647500000000     0.611500000000     0.546800000000    -0.0297605  
C971     C      0.587090000000     0.626940000000     0.537850000000    -0.00789152 
C972     C      0.626420000000     0.588710000000     0.536830000000    -0.00778763 
C973     C      0.669900000000     0.671020000000     0.562500000000    -0.0548509  
C974     C      0.669670000000     0.670060000000     0.614230000000    -0.0567574  
C975     C      0.651120000000     0.651980000000     0.575110000000     0.0623094  
C976     C      0.609680000000     0.648310000000     0.547760000000    -0.029623   
C977     C      0.688580000000     0.688970000000     0.601630000000     0.0650972  
C978     C      0.729430000000     0.692160000000     0.629680000000    -0.0022195  
C979     C      0.688470000000     0.689290000000     0.575730000000    -0.051354   
C980     C      0.752100000000     0.712990000000     0.640740000000    -0.0579488  
C981     C      0.713630000000     0.752380000000     0.639490000000    -0.00860451 
C982     C      0.651170000000     0.651740000000     0.601010000000    -0.0525175  
C983     C      0.773230000000     0.723670000000     0.621410000000     0.310372   
C984     C      0.607580000000     0.657810000000     0.887220000000    -0.0247415  
C985     C      0.712180000000     0.687990000000     0.787610000000    -0.0296453  
C986     C      0.685140000000     0.734790000000     0.759670000000    -0.0076305  
C987     C      0.721730000000     0.694080000000     0.761000000000    -0.00781012 
C988     C      0.680590000000     0.697590000000     0.836990000000    -0.0550959  
C989     C      0.638130000000     0.654230000000     0.837210000000    -0.0565919  
C990     C      0.670210000000     0.686450000000     0.814400000000     0.0620654  
C991     C      0.676790000000     0.727140000000     0.786330000000    -0.0298353  
C992     C      0.648580000000     0.665270000000     0.859810000000     0.0645249  
C993     C      0.647710000000     0.623650000000     0.887020000000    -0.00323748 
C994     C      0.669790000000     0.687050000000     0.859450000000    -0.0513167  
C995     C      0.641080000000     0.613650000000     0.913600000000    -0.0567384  
C996     C      0.599500000000     0.650000000000     0.913890000000    -0.00841905 
C997     C      0.648860000000     0.664820000000     0.814760000000    -0.0524061  
C998     C      0.662170000000     0.626660000000     0.931880000000     0.31248    
C999     C      0.611560000000     0.942610000000     0.545790000000    -0.0246948  
C1000    C      0.722410000000     0.904670000000     0.637570000000    -0.0313643  
C1001    C      0.693200000000     0.857970000000     0.664060000000    -0.0065799  
C1002    C      0.733090000000     0.895880000000     0.663250000000    -0.00379017 
C1003    C      0.658030000000     0.933110000000     0.615210000000    -0.0530551  
C1004    C      0.675640000000     0.914060000000     0.568440000000    -0.0512882  
C1005    C      0.679040000000     0.911310000000     0.613240000000     0.0629258  
C1006    C      0.684320000000     0.868250000000     0.638300000000    -0.029517   
C1007    C      0.654680000000     0.935890000000     0.570420000000     0.0647661  
C1008    C      0.649310000000     0.979160000000     0.545610000000    -0.00390518 
C1009    C      0.645870000000     0.945360000000     0.594010000000    -0.0566139  
C1010    C      0.640990000000     0.989840000000     0.519670000000    -0.0563361  
C1011    C      0.601430000000     0.950720000000     0.519820000000    -0.00801018 
C1012    C      0.687780000000     0.901780000000     0.589640000000    -0.0553779  
C1013    C      0.662820000000     0.979760000000     0.500690000000     0.315015   
C1014    C      0.890990000000     0.709730000000     0.634640000000    -0.0252335  
C1015    C      0.933070000000     0.596800000000     0.546710000000    -0.0293156  
C1016    C      0.978580000000     0.631200000000     0.523250000000    -0.00855719 
C1017    C      0.943670000000     0.588210000000     0.520920000000    -0.00864617 
C1018    C      0.898360000000     0.658560000000     0.568900000000    -0.0514254  
C1019    C      0.917330000000     0.643490000000     0.616320000000    -0.0529915  
C1020    C      0.921160000000     0.638770000000     0.571660000000     0.0618904  
C1021    C      0.966150000000     0.637470000000     0.548840000000    -0.0290621  
C1022    C      0.895150000000     0.663980000000     0.613540000000     0.0658301  
C1023    C      0.853190000000     0.673570000000     0.639340000000    -0.00533615 
C1024    C      0.885340000000     0.671070000000     0.589620000000    -0.0572156  
C1025    C      0.843900000000     0.685860000000     0.664620000000    -0.0534941  
C1026    C      0.884530000000     0.723220000000     0.659760000000    -0.0053927  
C1027    C      0.930250000000     0.630860000000     0.595590000000    -0.0545409  
C1028    C      0.853830000000     0.666460000000     0.685480000000     0.313285   
C1029    C      0.944290000000     0.972870000000     0.876520000000    -0.0268531  
C1030    C      0.912610000000     0.864170000000     0.780650000000    -0.0277056  
C1031    C      0.856950000000     0.887800000000     0.764320000000    -0.00915751 
C1032    C      0.891670000000     0.844010000000     0.767040000000    -0.00846103 
C1033    C      0.907470000000     0.899620000000     0.837230000000    -0.0518577  
C1034    C      0.952540000000     0.935660000000     0.821340000000    -0.0521761  
C1035    C      0.913840000000     0.901630000000     0.811960000000     0.0633103  
C1036    C      0.880250000000     0.905070000000     0.777840000000    -0.0270299  
C1037    C      0.945910000000     0.933950000000     0.846560000000     0.0648998  
C1038    C      0.979030000000     0.934050000000     0.881370000000    -0.0073889  
C1039    C      0.923370000000     0.915590000000     0.854490000000    -0.0561794  
C1040    C      0.001270000000     0.953670000000     0.894240000000    -0.0546657  
C1041    C      0.963660000000     0.994500000000     0.890190000000    -0.00746154 
C1042    C      0.936710000000     0.919640000000     0.804100000000    -0.0552189  
C1043    C      0.025200000000     0.961640000000     0.876290000000     0.314796   
C1044    C      0.894940000000     0.717700000000     0.792070000000    -0.0263219  
C1045    C      0.961960000000     0.666550000000     0.903930000000    -0.029301   
C1046    C      0.951980000000     0.604050000000     0.903320000000    -0.00671034 
C1047    C      0.970970000000     0.648370000000     0.926380000000    -0.00852084 
C1048    C      0.936540000000     0.695050000000     0.861300000000    -0.0539168  
C1049    C      0.881660000000     0.677480000000     0.845250000000    -0.053701   
C1050    C      0.923570000000     0.670290000000     0.871990000000     0.0621978  
C1051    C      0.946140000000     0.624080000000     0.881450000000    -0.0298091  
C1052    C      0.894220000000     0.702720000000     0.835010000000     0.0640979  
C1053    C      0.848680000000     0.714840000000     0.813090000000    -0.00356743 
C1054    C      0.921600000000     0.711410000000     0.843670000000    -0.0510025  
C1055    C      0.834800000000     0.737080000000     0.795530000000    -0.057506   
C1056    C      0.884360000000     0.741740000000     0.774870000000    -0.00471774 
C1057    C      0.895800000000     0.662180000000     0.863950000000    -0.0517769  
C1058    C      0.830430000000     0.765850000000     0.808400000000     0.314044   
C1059    C      0.698500000000     0.863180000000     0.799550000000    -0.0254365  
C1060    C      0.663420000000     0.974980000000     0.891720000000    -0.0288907  
C1061    C      0.601980000000     0.961020000000     0.896510000000    -0.0092937  
C1062    C      0.642750000000     0.997690000000     0.902510000000    -0.00722602 
C1063    C      0.683660000000     0.916410000000     0.870770000000    -0.0548156  
C1064    C      0.684090000000     0.923240000000     0.819350000000    -0.0567057  
C1065    C      0.666710000000     0.938280000000     0.859730000000     0.0627402  
C1066    C      0.624650000000     0.940110000000     0.886330000000    -0.0281778  
C1067    C      0.700620000000     0.901010000000     0.830320000000     0.0654831  
C1068    C      0.740580000000     0.895070000000     0.801710000000    -0.0029113  
C1069    C      0.700450000000     0.897950000000     0.856090000000    -0.0514896  
C1070    C      0.760020000000     0.872400000000     0.788960000000    -0.0558474  
C1071    C      0.716220000000     0.839080000000     0.787430000000    -0.0076703  
C1072    C      0.667280000000     0.941640000000     0.834010000000    -0.0523564  
C1073    C      0.779080000000     0.856560000000     0.807300000000     0.312685   
C1074    C      0.895030000000     0.856490000000     0.625710000000    -0.0248038  
C1075    C      0.937090000000     0.971150000000     0.537730000000    -0.029997   
C1076    C      0.997520000000     0.956380000000     0.527840000000    -0.00880029 
C1077    C      0.957390000000     0.994200000000     0.526910000000    -0.00767835 
C1078    C      0.915840000000     0.912080000000     0.556050000000    -0.0547595  
C1079    C      0.917660000000     0.915570000000     0.607700000000    -0.0568531  
C1080    C      0.934940000000     0.931840000000     0.567460000000     0.0610747  
C1081    C      0.975280000000     0.935090000000     0.538620000000    -0.0296304  
C1082    C      0.898340000000     0.896020000000     0.596300000000     0.0643304  
C1083    C      0.858300000000     0.894230000000     0.625480000000    -0.00281307 
C1084    C      0.897720000000     0.894420000000     0.570400000000    -0.0518361  
C1085    C      0.835590000000     0.874010000000     0.637420000000    -0.0582598  
C1086    C      0.873960000000     0.834320000000     0.636800000000    -0.00873761 
C1087    C      0.935690000000     0.933290000000     0.593350000000    -0.052246   
C1088    C      0.813770000000     0.863490000000     0.618610000000     0.313166   
Co1      Co     0.046450000000     0.503010000000     0.460900000000     0.830749   
Co2      Co     0.542410000000     0.088070000000     0.965530000000     0.832548   
Co3      Co     0.501970000000     0.543520000000     0.459660000000     0.83813    
Co4      Co     0.087710000000     0.547340000000     0.963220000000     0.85223    
Co5      Co     0.294750000000     0.336340000000     0.211970000000     0.853175   
Co6      Co     0.290660000000     0.250570000000     0.215950000000     0.849982   
Co7      Co     0.335240000000     0.291150000000     0.209940000000     0.843602   
Co8      Co     0.250260000000     0.294960000000     0.213550000000     0.840917   
Co9      Co     0.046450000000     0.503010000000     0.960900000000     0.8307     
Co10     Co     0.542410000000     0.088070000000     0.465530000000     0.83258    
Co11     Co     0.501970000000     0.543520000000     0.959660000000     0.83826    
Co12     Co     0.087710000000     0.547340000000     0.463220000000     0.852236   
Co13     Co     0.294750000000     0.336340000000     0.711970000000     0.853267   
Co14     Co     0.290660000000     0.250570000000     0.715950000000     0.849981   
Co15     Co     0.335240000000     0.291150000000     0.709940000000     0.843597   
Co16     Co     0.250260000000     0.294960000000     0.713550000000     0.840907   
Co17     Co     0.046450000000     0.003010000000     0.460900000000     0.829779   
Co18     Co     0.542410000000     0.588070000000     0.965530000000     0.83259    
Co19     Co     0.501970000000     0.043520000000     0.459660000000     0.838162   
Co20     Co     0.087710000000     0.047340000000     0.963220000000     0.852247   
Co21     Co     0.294750000000     0.836340000000     0.211970000000     0.853181   
Co22     Co     0.290660000000     0.750570000000     0.215950000000     0.849986   
Co23     Co     0.335240000000     0.791150000000     0.209940000000     0.843597   
Co24     Co     0.250260000000     0.794960000000     0.213550000000     0.840914   
Co25     Co     0.046450000000     0.003010000000     0.960900000000     0.82973    
Co26     Co     0.542410000000     0.588070000000     0.465530000000     0.832622   
Co27     Co     0.501970000000     0.043520000000     0.959660000000     0.838293   
Co28     Co     0.087710000000     0.047340000000     0.463220000000     0.852253   
Co29     Co     0.294750000000     0.836340000000     0.711970000000     0.853272   
Co30     Co     0.290660000000     0.750570000000     0.715950000000     0.849986   
Co31     Co     0.335240000000     0.791150000000     0.709940000000     0.843591   
Co32     Co     0.250260000000     0.794960000000     0.713550000000     0.840903   
Co33     Co     0.546450000000     0.503010000000     0.460900000000     0.830738   
Co34     Co     0.042410000000     0.088070000000     0.965530000000     0.832538   
Co35     Co     0.001970000000     0.543520000000     0.459660000000     0.838045   
Co36     Co     0.587710000000     0.547340000000     0.963220000000     0.852307   
Co37     Co     0.794750000000     0.336340000000     0.211970000000     0.853175   
Co38     Co     0.790660000000     0.250570000000     0.215950000000     0.849981   
Co39     Co     0.835240000000     0.291150000000     0.209940000000     0.843602   
Co40     Co     0.750260000000     0.294960000000     0.213550000000     0.840917   
Co41     Co     0.546450000000     0.503010000000     0.960900000000     0.830689   
Co42     Co     0.042410000000     0.088070000000     0.465530000000     0.83257    
Co43     Co     0.001970000000     0.543520000000     0.959660000000     0.838176   
Co44     Co     0.587710000000     0.547340000000     0.463220000000     0.852313   
Co45     Co     0.794750000000     0.336340000000     0.711970000000     0.853266   
Co46     Co     0.790660000000     0.250570000000     0.715950000000     0.84998    
Co47     Co     0.835240000000     0.291150000000     0.709940000000     0.843597   
Co48     Co     0.750260000000     0.294960000000     0.713550000000     0.840906   
Co49     Co     0.546450000000     0.003010000000     0.460900000000     0.829777   
Co50     Co     0.042410000000     0.588070000000     0.965530000000     0.83258    
Co51     Co     0.001970000000     0.043520000000     0.459660000000     0.838067   
Co52     Co     0.587710000000     0.047340000000     0.963220000000     0.852324   
Co53     Co     0.794750000000     0.836340000000     0.211970000000     0.85318    
Co54     Co     0.790660000000     0.750570000000     0.215950000000     0.849986   
Co55     Co     0.835240000000     0.791150000000     0.209940000000     0.843597   
Co56     Co     0.750260000000     0.794960000000     0.213550000000     0.840914   
Co57     Co     0.546450000000     0.003010000000     0.960900000000     0.829728   
Co58     Co     0.042410000000     0.588070000000     0.465530000000     0.832612   
Co59     Co     0.001970000000     0.043520000000     0.959660000000     0.838198   
Co60     Co     0.587710000000     0.047340000000     0.463220000000     0.85233    
Co61     Co     0.794750000000     0.836340000000     0.711970000000     0.853272   
Co62     Co     0.790660000000     0.750570000000     0.715950000000     0.849985   
Co63     Co     0.835240000000     0.791150000000     0.709940000000     0.843591   
Co64     Co     0.750260000000     0.794960000000     0.713550000000     0.840903   
H1       H      0.136810000000     0.137260000000     0.110940000000     0.0456203  
H2       H      0.176140000000     0.241250000000     0.117660000000     0.0368164  
H3       H      0.240630000000     0.175530000000     0.118180000000     0.0380457  
H4       H      0.074550000000     0.118120000000     0.053730000000     0.0381673  
H5       H      0.222530000000     0.265090000000     0.123750000000     0.0519909  
H6       H      0.164330000000     0.100260000000     0.058030000000     0.0388354  
H7       H      0.098420000000     0.164440000000     0.059700000000     0.036011   
H8       H      0.138470000000     0.074110000000     0.024090000000     0.0542387  
H9       H      0.264650000000     0.200060000000     0.154450000000     0.0696739  
H10      H      0.169230000000     0.169450000000     0.134230000000     0.0427733  
H11      H      0.201430000000     0.267660000000     0.151530000000     0.0480703  
H12      H      0.170210000000     0.171720000000     0.042500000000     0.0453701  
H13      H      0.180750000000     0.219490000000     0.145130000000     0.0388437  
H14      H      0.071720000000     0.138990000000     0.025800000000     0.0476397  
H15      H      0.158450000000     0.122380000000     0.030960000000     0.0466457  
H16      H      0.119720000000     0.160110000000     0.031960000000     0.0423546  
H17      H      0.202850000000     0.203760000000     0.065800000000     0.0540048  
H18      H      0.218460000000     0.180560000000     0.145140000000     0.0342781  
H19      H      0.118530000000     0.075340000000     0.052570000000     0.0381322  
H20      H      0.277370000000     0.236590000000     0.085650000000     0.179214   
H21      H      0.140770000000     0.155930000000     0.297560000000     0.0461679  
H22      H      0.101350000000     0.180800000000     0.383850000000     0.0373249  
H23      H      0.171350000000     0.121070000000     0.383320000000     0.0379867  
H24      H      0.169430000000     0.224200000000     0.246950000000     0.03985    
H25      H      0.108850000000     0.166600000000     0.426480000000     0.053413   
H26      H      0.215230000000     0.164450000000     0.291380000000     0.0375419  
H27      H      0.153510000000     0.232640000000     0.289110000000     0.0365312  
H28      H      0.245270000000     0.189280000000     0.259390000000     0.050056   
H29      H      0.144290000000     0.089700000000     0.413690000000     0.0712092  
H30      H      0.121950000000     0.137230000000     0.336920000000     0.0430606  
H31      H      0.075520000000     0.151130000000     0.415730000000     0.0472931  
H32      H      0.197220000000     0.214150000000     0.337260000000     0.0453745  
H33      H      0.094890000000     0.143860000000     0.374340000000     0.0383962  
H34      H      0.183070000000     0.258640000000     0.257220000000     0.0475459  
H35      H      0.226290000000     0.200420000000     0.300560000000     0.0434037  
H36      H      0.189920000000     0.240580000000     0.299270000000     0.04221    
H37      H      0.178200000000     0.195610000000     0.376660000000     0.054215   
H38      H      0.135960000000     0.109210000000     0.373870000000     0.0340485  
H39      H      0.209980000000     0.178960000000     0.248490000000     0.0408708  
H40      H      0.180970000000     0.164180000000     0.443330000000     0.180269   
H41      H      0.203940000000     0.384920000000     0.087640000000     0.0463777  
H42      H      0.106830000000     0.419200000000     0.048840000000     0.0363832  
H43      H      0.172840000000     0.483240000000     0.048850000000     0.0375199  
H44      H      0.178670000000     0.368290000000     0.177920000000     0.0400231  
H45      H      0.110070000000     0.434540000000     0.006470000000     0.054956   
H46      H      0.227070000000     0.428160000000     0.134880000000     0.0393257  
H47      H      0.160600000000     0.364580000000     0.136060000000     0.0359483  
H48      H      0.257110000000     0.398070000000     0.163660000000     0.0555593  
H49      H      0.141730000000     0.513990000000     0.020400000000     0.0695009  
H50      H      0.182590000000     0.406610000000     0.050390000000     0.0535786  
H51      H      0.077360000000     0.449120000000     0.019320000000     0.0460372  
H52      H      0.151110000000     0.440590000000     0.133250000000     0.0458152  
H53      H      0.099020000000     0.455380000000     0.059630000000     0.0358165  
H54      H      0.189790000000     0.334120000000     0.165090000000     0.0476366  
H55      H      0.234660000000     0.392250000000     0.123330000000     0.0545675  
H56      H      0.195900000000     0.355050000000     0.124150000000     0.0430365  
H57      H      0.129680000000     0.462190000000     0.096000000000     0.0416189  
H58      H      0.137070000000     0.492040000000     0.059580000000     0.0315094  
H59      H      0.224020000000     0.411270000000     0.177060000000     0.0395361  
H60      H      0.180770000000     0.444220000000     0.984600000000     0.179822   
H61      H      0.447800000000     0.115570000000     0.098190000000     0.0421392  
H62      H      0.414390000000     0.213180000000     0.130450000000     0.037204   
H63      H      0.348290000000     0.149920000000     0.138640000000     0.0382031  
H64      H      0.468910000000     0.146670000000     0.009780000000     0.0422145  
H65      H      0.400650000000     0.215080000000     0.173390000000     0.0531505  
H66      H      0.410000000000     0.090000000000     0.048590000000     0.0365254  
H67      H      0.467940000000     0.161210000000     0.052360000000     0.0359343  
H68      H      0.444530000000     0.064140000000     0.019880000000     0.0450826  
H69      H      0.319750000000     0.185920000000     0.164710000000     0.0764132  
H70      H      0.425080000000     0.137870000000     0.134610000000     0.0538432  
H71      H      0.387670000000     0.247060000000     0.158190000000     0.0492816  
H72      H      0.391160000000     0.164800000000     0.050590000000     0.0472734  
H73      H      0.378000000000     0.221080000000     0.120210000000     0.0442627  
H74      H      0.502320000000     0.135430000000     0.023780000000     0.0466521  
H75      H      0.446000000000     0.085020000000     0.060930000000     0.0371432  
H76      H      0.479340000000     0.125940000000     0.063040000000     0.0374273  
H77      H      0.368250000000     0.186850000000     0.086970000000     0.0461777  
H78      H      0.340090000000     0.184190000000     0.124590000000     0.0452732  
H79      H      0.427540000000     0.095710000000     0.007030000000     0.0433647  
H80      H      0.339850000000     0.142880000000     0.214880000000     0.181789   
H81      H      0.442030000000     0.421540000000     0.284670000000     0.0424891  
H82      H      0.430770000000     0.485090000000     0.363000000000     0.0368475  
H83      H      0.490330000000     0.415870000000     0.371810000000     0.0445887  
H84      H      0.338690000000     0.383760000000     0.277280000000     0.0592088  
H85      H      0.473690000000     0.509330000000     0.376410000000     0.0533289  
H86      H      0.426120000000     0.350810000000     0.293370000000     0.0378032  
H87      H      0.369450000000     0.422790000000     0.288390000000     0.0372866  
H88      H      0.404170000000     0.331040000000     0.253340000000     0.0466651  
H89      H      0.511340000000     0.440790000000     0.409380000000     0.0657168  
H90      H      0.469910000000     0.449660000000     0.315050000000     0.0508943  
H91      H      0.449650000000     0.508000000000     0.402350000000     0.0474228  
H92      H      0.389920000000     0.385850000000     0.343500000000     0.0497956  
H93      H      0.429450000000     0.462200000000     0.389990000000     0.0380294  
H94      H      0.348250000000     0.401330000000     0.248980000000     0.0457005  
H95      H      0.427360000000     0.374710000000     0.267030000000     0.0372571  
H96      H      0.395100000000     0.415240000000     0.264080000000     0.0371308  
H97      H      0.417960000000     0.413850000000     0.373900000000     0.0434111  
H98      H      0.464530000000     0.424180000000     0.395550000000     0.0349864  
H99      H      0.382350000000     0.328390000000     0.280570000000     0.0543075  
H100     H      0.556280000000     0.444660000000     0.353900000000     0.177755   
H101     H      0.385210000000     0.143430000000     0.371960000000     0.0454746  
H102     H      0.418790000000     0.220260000000     0.294150000000     0.0358803  
H103     H      0.337530000000     0.215890000000     0.331360000000     0.0370162  
H104     H      0.431300000000     0.100110000000     0.413360000000     0.0439541  
H105     H      0.391540000000     0.263080000000     0.282230000000     0.0549006  
H106     H      0.455560000000     0.188450000000     0.410650000000     0.0363258  
H107     H      0.428620000000     0.114080000000     0.370180000000     0.0351472  
H108     H      0.491770000000     0.157030000000     0.433720000000     0.0469721  
H109     H      0.313000000000     0.228400000000     0.290600000000     0.0701575  
H110     H      0.360750000000     0.169460000000     0.339390000000     0.0425054  
H111     H      0.394640000000     0.238760000000     0.256420000000     0.0455955  
H112     H      0.457930000000     0.202300000000     0.366620000000     0.0417969  
H113     H      0.390860000000     0.196080000000     0.283520000000     0.042533   
H114     H      0.459830000000     0.082830000000     0.396110000000     0.0454959  
H115     H      0.481050000000     0.168880000000     0.391450000000     0.0382001  
H116     H      0.465810000000     0.125750000000     0.369560000000     0.041331   
H117     H      0.431700000000     0.230820000000     0.336370000000     0.047197   
H118     H      0.344870000000     0.192850000000     0.305160000000     0.0340638  
H119     H      0.454410000000     0.151230000000     0.441130000000     0.0408276  
H120     H      0.351090000000     0.299000000000     0.325790000000     0.185509   
H121     H      0.154280000000     0.458330000000     0.325300000000     0.0467482  
H122     H      0.180820000000     0.353000000000     0.310560000000     0.037459   
H123     H      0.254050000000     0.408660000000     0.314300000000     0.0378129  
H124     H      0.090290000000     0.470980000000     0.380690000000     0.0522355  
H125     H      0.223130000000     0.323450000000     0.301940000000     0.0550973  
H126     H      0.181540000000     0.486490000000     0.382290000000     0.038892   
H127     H      0.113800000000     0.425340000000     0.372910000000     0.0390001  
H128     H      0.154110000000     0.509260000000     0.417740000000     0.0557724  
H129     H      0.274510000000     0.384680000000     0.276250000000     0.066215   
H130     H      0.183850000000     0.426090000000     0.299490000000     0.0427216  
H131     H      0.201930000000     0.327230000000     0.274300000000     0.0472623  
H132     H      0.183530000000     0.413360000000     0.390610000000     0.0442907  
H133     H      0.188420000000     0.376750000000     0.284830000000     0.0384074  
H134     H      0.085950000000     0.448370000000     0.407460000000     0.0563443  
H135     H      0.172740000000     0.461770000000     0.407030000000     0.042953   
H136     H      0.133500000000     0.426710000000     0.401720000000     0.0416235  
H137     H      0.213080000000     0.380960000000     0.364760000000     0.0545068  
H138     H      0.231380000000     0.409660000000     0.287290000000     0.0332404  
H139     H      0.137680000000     0.513940000000     0.387940000000     0.044508   
H140     H      0.281100000000     0.339990000000     0.342080000000     0.184314   
H141     H      0.450270000000     0.448320000000     0.102430000000     0.0453196  
H142     H      0.411120000000     0.344620000000     0.114170000000     0.0368611  
H143     H      0.347030000000     0.410630000000     0.113780000000     0.0370222  
H144     H      0.511170000000     0.464850000000     0.043180000000     0.0389771  
H145     H      0.365220000000     0.320600000000     0.121620000000     0.0535435  
H146     H      0.420200000000     0.482340000000     0.048930000000     0.0363055  
H147     H      0.486990000000     0.419240000000     0.050510000000     0.0355875  
H148     H      0.444820000000     0.507510000000     0.013520000000     0.0469939  
H149     H      0.323740000000     0.387440000000     0.151250000000     0.068377   
H150     H      0.418720000000     0.417200000000     0.127640000000     0.0424184  
H151     H      0.386350000000     0.319870000000     0.149420000000     0.0477818  
H152     H      0.414840000000     0.410420000000     0.036110000000     0.0430738  
H153     H      0.406950000000     0.367550000000     0.140950000000     0.0382137  
H154     H      0.512020000000     0.444260000000     0.015060000000     0.046527   
H155     H      0.426050000000     0.459510000000     0.022330000000     0.0398486  
H156     H      0.464780000000     0.422890000000     0.023260000000     0.0394267  
H157     H      0.383060000000     0.379470000000     0.061330000000     0.0532092  
H158     H      0.369760000000     0.406230000000     0.140450000000     0.0331364  
H159     H      0.464520000000     0.508850000000     0.042080000000     0.0386195  
H160     H      0.309030000000     0.346470000000     0.084190000000     0.179666   
H161     H      0.136810000000     0.137260000000     0.610940000000     0.0456227  
H162     H      0.176140000000     0.241250000000     0.617660000000     0.0368238  
H163     H      0.240630000000     0.175530000000     0.618180000000     0.0380515  
H164     H      0.074550000000     0.118120000000     0.553730000000     0.0381757  
H165     H      0.222530000000     0.265090000000     0.623750000000     0.0519971  
H166     H      0.164330000000     0.100260000000     0.558030000000     0.0388552  
H167     H      0.098420000000     0.164440000000     0.559700000000     0.0360287  
H168     H      0.138470000000     0.074110000000     0.524090000000     0.0543013  
H169     H      0.264650000000     0.200060000000     0.654450000000     0.0696802  
H170     H      0.169230000000     0.169450000000     0.634230000000     0.0427678  
H171     H      0.201430000000     0.267660000000     0.651530000000     0.0480712  
H172     H      0.170210000000     0.171720000000     0.542500000000     0.0454044  
H173     H      0.180750000000     0.219490000000     0.645130000000     0.0388435  
H174     H      0.071720000000     0.138990000000     0.525800000000     0.0476986  
H175     H      0.158450000000     0.122380000000     0.530960000000     0.0466941  
H176     H      0.119720000000     0.160110000000     0.531960000000     0.0423997  
H177     H      0.202850000000     0.203760000000     0.565800000000     0.0540371  
H178     H      0.218460000000     0.180560000000     0.645140000000     0.0342744  
H179     H      0.118530000000     0.075340000000     0.552570000000     0.0381401  
H180     H      0.277370000000     0.236590000000     0.585650000000     0.1792     
H181     H      0.140770000000     0.155930000000     0.797560000000     0.0461643  
H182     H      0.101350000000     0.180800000000     0.883850000000     0.0373335  
H183     H      0.171350000000     0.121070000000     0.883320000000     0.0379927  
H184     H      0.169430000000     0.224200000000     0.746950000000     0.0398492  
H185     H      0.108850000000     0.166600000000     0.926480000000     0.0534444  
H186     H      0.215230000000     0.164450000000     0.791380000000     0.0375412  
H187     H      0.153510000000     0.232640000000     0.789110000000     0.036521   
H188     H      0.245270000000     0.189280000000     0.759390000000     0.0500554  
H189     H      0.144290000000     0.089700000000     0.913690000000     0.0712122  
H190     H      0.121950000000     0.137230000000     0.836920000000     0.0430581  
H191     H      0.075520000000     0.151130000000     0.915730000000     0.0473048  
H192     H      0.197220000000     0.214150000000     0.837260000000     0.0453789  
H193     H      0.094890000000     0.143860000000     0.874340000000     0.0383933  
H194     H      0.183070000000     0.258640000000     0.757220000000     0.0475483  
H195     H      0.226290000000     0.200420000000     0.800560000000     0.0434055  
H196     H      0.189920000000     0.240580000000     0.799280000000     0.0421903  
H197     H      0.178200000000     0.195610000000     0.876660000000     0.0542296  
H198     H      0.135960000000     0.109210000000     0.873870000000     0.0340469  
H199     H      0.209980000000     0.178960000000     0.748490000000     0.0408681  
H200     H      0.180970000000     0.164180000000     0.943330000000     0.180317   
H201     H      0.203940000000     0.384920000000     0.587640000000     0.0463722  
H202     H      0.106830000000     0.419200000000     0.548840000000     0.0364011  
H203     H      0.172840000000     0.483240000000     0.548850000000     0.0375267  
H204     H      0.178670000000     0.368290000000     0.677920000000     0.0400219  
H205     H      0.110070000000     0.434540000000     0.506470000000     0.0550521  
H206     H      0.227070000000     0.428160000000     0.634880000000     0.039332   
H207     H      0.160600000000     0.364580000000     0.636060000000     0.035953   
H208     H      0.257110000000     0.398070000000     0.663660000000     0.0555535  
H209     H      0.141730000000     0.513990000000     0.520400000000     0.0696293  
H210     H      0.182590000000     0.406610000000     0.550390000000     0.0536301  
H211     H      0.077360000000     0.449120000000     0.519310000000     0.0461198  
H212     H      0.151110000000     0.440590000000     0.633250000000     0.0458009  
H213     H      0.099020000000     0.455380000000     0.559630000000     0.0358219  
H214     H      0.189790000000     0.334120000000     0.665090000000     0.0476352  
H215     H      0.234660000000     0.392250000000     0.623330000000     0.0545746  
H216     H      0.195900000000     0.355050000000     0.624150000000     0.0430412  
H217     H      0.129680000000     0.462190000000     0.596000000000     0.0416285  
H218     H      0.137070000000     0.492040000000     0.559580000000     0.0315018  
H219     H      0.224020000000     0.411270000000     0.677060000000     0.0395349  
H220     H      0.180770000000     0.444220000000     0.484600000000     0.179867   
H221     H      0.447800000000     0.115570000000     0.598190000000     0.0421312  
H222     H      0.414390000000     0.213180000000     0.630450000000     0.0372081  
H223     H      0.348290000000     0.149920000000     0.638640000000     0.0382063  
H224     H      0.468910000000     0.146670000000     0.509780000000     0.0422966  
H225     H      0.400650000000     0.215080000000     0.673390000000     0.0531485  
H226     H      0.410000000000     0.090000000000     0.548590000000     0.0365437  
H227     H      0.467940000000     0.161210000000     0.552370000000     0.0359461  
H228     H      0.444530000000     0.064140000000     0.519880000000     0.0451511  
H229     H      0.319750000000     0.185920000000     0.664710000000     0.0764121  
H230     H      0.425080000000     0.137870000000     0.634610000000     0.0538414  
H231     H      0.387670000000     0.247060000000     0.658190000000     0.0492818  
H232     H      0.391160000000     0.164800000000     0.550590000000     0.0473035  
H233     H      0.378000000000     0.221080000000     0.620210000000     0.0442699  
H234     H      0.502320000000     0.135430000000     0.523780000000     0.0467291  
H235     H      0.446000000000     0.085020000000     0.560930000000     0.0371493  
H236     H      0.479340000000     0.125940000000     0.563040000000     0.0374299  
H237     H      0.368250000000     0.186850000000     0.586970000000     0.0461937  
H238     H      0.340090000000     0.184190000000     0.624590000000     0.0452799  
H239     H      0.427540000000     0.095710000000     0.507030000000     0.0434425  
H240     H      0.339850000000     0.142880000000     0.714880000000     0.181786   
H241     H      0.442030000000     0.421540000000     0.784670000000     0.0424834  
H242     H      0.430770000000     0.485090000000     0.863000000000     0.0368515  
H243     H      0.490330000000     0.415870000000     0.871810000000     0.0445972  
H244     H      0.338690000000     0.383760000000     0.777280000000     0.0592089  
H245     H      0.473690000000     0.509330000000     0.876410000000     0.0533217  
H246     H      0.426120000000     0.350810000000     0.793370000000     0.0378046  
H247     H      0.369450000000     0.422790000000     0.788390000000     0.0372869  
H248     H      0.404170000000     0.331040000000     0.753340000000     0.0466636  
H249     H      0.511340000000     0.440790000000     0.909380000000     0.0657373  
H250     H      0.469910000000     0.449660000000     0.815050000000     0.0508959  
H251     H      0.449650000000     0.508000000000     0.902350000000     0.0474331  
H252     H      0.389920000000     0.385850000000     0.843500000000     0.0497992  
H253     H      0.429450000000     0.462200000000     0.889990000000     0.0380482  
H254     H      0.348250000000     0.401330000000     0.748980000000     0.0456998  
H255     H      0.427360000000     0.374710000000     0.767030000000     0.0372555  
H256     H      0.395100000000     0.415240000000     0.764080000000     0.0371289  
H257     H      0.417960000000     0.413850000000     0.873900000000     0.043473   
H258     H      0.464530000000     0.424180000000     0.895550000000     0.0350087  
H259     H      0.382350000000     0.328390000000     0.780570000000     0.0543077  
H260     H      0.556280000000     0.444660000000     0.853900000000     0.177753   
H261     H      0.385210000000     0.143430000000     0.871960000000     0.0454873  
H262     H      0.418790000000     0.220260000000     0.794150000000     0.0358784  
H263     H      0.337530000000     0.215890000000     0.831360000000     0.0370227  
H264     H      0.431300000000     0.100110000000     0.913360000000     0.0439824  
H265     H      0.391540000000     0.263080000000     0.782230000000     0.0549007  
H266     H      0.455560000000     0.188450000000     0.910650000000     0.0363519  
H267     H      0.428620000000     0.114080000000     0.870180000000     0.0351487  
H268     H      0.491770000000     0.157030000000     0.933720000000     0.046998   
H269     H      0.313000000000     0.228400000000     0.790610000000     0.0701516  
H270     H      0.360750000000     0.169460000000     0.839390000000     0.0425091  
H271     H      0.394640000000     0.238760000000     0.756420000000     0.0455937  
H272     H      0.457930000000     0.202300000000     0.866620000000     0.0418034  
H273     H      0.390860000000     0.196080000000     0.783520000000     0.0425306  
H274     H      0.459830000000     0.082830000000     0.896110000000     0.0454895  
H275     H      0.481050000000     0.168880000000     0.891450000000     0.0382027  
H276     H      0.465810000000     0.125750000000     0.869560000000     0.041325   
H277     H      0.431700000000     0.230820000000     0.836370000000     0.0472006  
H278     H      0.344870000000     0.192850000000     0.805160000000     0.0340643  
H279     H      0.454410000000     0.151230000000     0.941130000000     0.0408809  
H280     H      0.351090000000     0.299000000000     0.825790000000     0.185516   
H281     H      0.154280000000     0.458330000000     0.825300000000     0.0467455  
H282     H      0.180820000000     0.353000000000     0.810560000000     0.0374496  
H283     H      0.254050000000     0.408660000000     0.814300000000     0.037816   
H284     H      0.090290000000     0.470980000000     0.880690000000     0.0522328  
H285     H      0.223130000000     0.323450000000     0.801940000000     0.055106   
H286     H      0.181540000000     0.486490000000     0.882290000000     0.0388992  
H287     H      0.113800000000     0.425340000000     0.872910000000     0.039006   
H288     H      0.154110000000     0.509260000000     0.917740000000     0.0557836  
H289     H      0.274510000000     0.384680000000     0.776250000000     0.0662144  
H290     H      0.183850000000     0.426090000000     0.799490000000     0.0427197  
H291     H      0.201930000000     0.327230000000     0.774300000000     0.0472672  
H292     H      0.183530000000     0.413360000000     0.890610000000     0.0443082  
H293     H      0.188420000000     0.376750000000     0.784830000000     0.0383835  
H294     H      0.085950000000     0.448370000000     0.907460000000     0.0563583  
H295     H      0.172740000000     0.461770000000     0.907030000000     0.04297    
H296     H      0.133500000000     0.426710000000     0.901720000000     0.0416426  
H297     H      0.213080000000     0.380960000000     0.864760000000     0.0545204  
H298     H      0.231380000000     0.409660000000     0.787290000000     0.0332385  
H299     H      0.137680000000     0.513940000000     0.887940000000     0.0445062  
H300     H      0.281100000000     0.339990000000     0.842080000000     0.184326   
H301     H      0.450270000000     0.448320000000     0.602430000000     0.0453184  
H302     H      0.411120000000     0.344620000000     0.614170000000     0.0368679  
H303     H      0.347030000000     0.410630000000     0.613780000000     0.0370264  
H304     H      0.511170000000     0.464850000000     0.543180000000     0.0390035  
H305     H      0.365220000000     0.320600000000     0.621620000000     0.0535501  
H306     H      0.420200000000     0.482340000000     0.548930000000     0.0363211  
H307     H      0.486990000000     0.419240000000     0.550510000000     0.0356028  
H308     H      0.444820000000     0.507510000000     0.513520000000     0.0470742  
H309     H      0.323740000000     0.387440000000     0.651250000000     0.0683745  
H310     H      0.418720000000     0.417200000000     0.627640000000     0.0424207  
H311     H      0.386350000000     0.319870000000     0.649420000000     0.0477838  
H312     H      0.414840000000     0.410420000000     0.536110000000     0.0431116  
H313     H      0.406950000000     0.367550000000     0.640950000000     0.0382124  
H314     H      0.512020000000     0.444260000000     0.515060000000     0.0466042  
H315     H      0.426050000000     0.459510000000     0.522330000000     0.0398924  
H316     H      0.464780000000     0.422890000000     0.523260000000     0.03947    
H317     H      0.383060000000     0.379470000000     0.561330000000     0.0532268  
H318     H      0.369760000000     0.406230000000     0.640450000000     0.033133   
H319     H      0.464520000000     0.508850000000     0.542080000000     0.0386476  
H320     H      0.309030000000     0.346470000000     0.584190000000     0.179701   
H321     H      0.136810000000     0.637260000000     0.110940000000     0.0456536  
H322     H      0.176140000000     0.741250000000     0.117660000000     0.0368155  
H323     H      0.240630000000     0.675530000000     0.118180000000     0.0380653  
H324     H      0.074550000000     0.618120000000     0.053730000000     0.0382081  
H325     H      0.222530000000     0.765090000000     0.123750000000     0.0519883  
H326     H      0.164330000000     0.600260000000     0.058030000000     0.0388886  
H327     H      0.098420000000     0.664440000000     0.059700000000     0.0360108  
H328     H      0.138470000000     0.574110000000     0.024090000000     0.0542745  
H329     H      0.264650000000     0.700060000000     0.154450000000     0.0696818  
H330     H      0.169230000000     0.669450000000     0.134230000000     0.0427893  
H331     H      0.201430000000     0.767660000000     0.151530000000     0.0480698  
H332     H      0.170210000000     0.671720000000     0.042500000000     0.0453738  
H333     H      0.180750000000     0.719490000000     0.145130000000     0.0388481  
H334     H      0.071720000000     0.638990000000     0.025800000000     0.0476512  
H335     H      0.158450000000     0.622380000000     0.030960000000     0.0466623  
H336     H      0.119720000000     0.660110000000     0.031960000000     0.042347   
H337     H      0.202850000000     0.703760000000     0.065800000000     0.0540063  
H338     H      0.218460000000     0.680560000000     0.145140000000     0.0342951  
H339     H      0.118530000000     0.575340000000     0.052570000000     0.0381953  
H340     H      0.277370000000     0.736590000000     0.085650000000     0.179215   
H341     H      0.140770000000     0.655930000000     0.297560000000     0.0461999  
H342     H      0.101350000000     0.680800000000     0.383850000000     0.037326   
H343     H      0.171350000000     0.621070000000     0.383320000000     0.038019   
H344     H      0.169430000000     0.724200000000     0.246950000000     0.0398435  
H345     H      0.108850000000     0.666600000000     0.426480000000     0.0534087  
H346     H      0.215230000000     0.664450000000     0.291380000000     0.0375633  
H347     H      0.153510000000     0.732630000000     0.289110000000     0.0365489  
H348     H      0.245270000000     0.689280000000     0.259390000000     0.0500835  
H349     H      0.144290000000     0.589700000000     0.413690000000     0.0712371  
H350     H      0.121950000000     0.637230000000     0.336920000000     0.0430827  
H351     H      0.075520000000     0.651130000000     0.415730000000     0.0472957  
H352     H      0.197220000000     0.714140000000     0.337260000000     0.0454313  
H353     H      0.094890000000     0.643860000000     0.374340000000     0.038413   
H354     H      0.183070000000     0.758640000000     0.257220000000     0.0475388  
H355     H      0.226290000000     0.700420000000     0.300560000000     0.0434026  
H356     H      0.189920000000     0.740580000000     0.299270000000     0.0422179  
H357     H      0.178200000000     0.695620000000     0.376660000000     0.0541882  
H358     H      0.135960000000     0.609210000000     0.373870000000     0.034085   
H359     H      0.209980000000     0.678960000000     0.248490000000     0.040903   
H360     H      0.180970000000     0.664180000000     0.443330000000     0.180275   
H361     H      0.203940000000     0.884920000000     0.087640000000     0.0463846  
H362     H      0.106830000000     0.919200000000     0.048840000000     0.0363902  
H363     H      0.172840000000     0.983250000000     0.048850000000     0.0376332  
H364     H      0.178670000000     0.868290000000     0.177920000000     0.0400361  
H365     H      0.110070000000     0.934540000000     0.006470000000     0.0549444  
H366     H      0.227070000000     0.928160000000     0.134880000000     0.0393683  
H367     H      0.160600000000     0.864580000000     0.136060000000     0.0359519  
H368     H      0.257110000000     0.898060000000     0.163660000000     0.0555984  
H369     H      0.141730000000     0.013990000000     0.020400000000     0.0690573  
H370     H      0.182590000000     0.906600000000     0.050390000000     0.0535697  
H371     H      0.077360000000     0.949120000000     0.019320000000     0.0460422  
H372     H      0.151110000000     0.940590000000     0.133250000000     0.0458602  
H373     H      0.099020000000     0.955380000000     0.059630000000     0.0358578  
H374     H      0.189790000000     0.834120000000     0.165090000000     0.0476374  
H375     H      0.234660000000     0.892250000000     0.123330000000     0.0545738  
H376     H      0.195900000000     0.855050000000     0.124150000000     0.043034   
H377     H      0.129680000000     0.962190000000     0.096000000000     0.0416696  
H378     H      0.137070000000     0.992040000000     0.059580000000     0.0316538  
H379     H      0.224020000000     0.911270000000     0.177060000000     0.0395769  
H380     H      0.180770000000     0.944220000000     0.984600000000     0.179838   
H381     H      0.447800000000     0.615570000000     0.098190000000     0.0421695  
H382     H      0.414390000000     0.713180000000     0.130450000000     0.0372059  
H383     H      0.348290000000     0.649920000000     0.138640000000     0.0382291  
H384     H      0.468910000000     0.646670000000     0.009780000000     0.0422122  
H385     H      0.400650000000     0.715080000000     0.173390000000     0.0531534  
H386     H      0.410000000000     0.590000000000     0.048590000000     0.036573   
H387     H      0.467940000000     0.661210000000     0.052360000000     0.0359358  
H388     H      0.444530000000     0.564140000000     0.019880000000     0.045115   
H389     H      0.319750000000     0.685920000000     0.164710000000     0.0764193  
H390     H      0.425080000000     0.637870000000     0.134610000000     0.0538712  
H391     H      0.387670000000     0.747060000000     0.158190000000     0.0492796  
H392     H      0.391160000000     0.664800000000     0.050590000000     0.0472825  
H393     H      0.378000000000     0.721080000000     0.120210000000     0.0442614  
H394     H      0.502320000000     0.635430000000     0.023780000000     0.0466553  
H395     H      0.446000000000     0.585020000000     0.060930000000     0.0371869  
H396     H      0.479340000000     0.625940000000     0.063040000000     0.037445   
H397     H      0.368250000000     0.686850000000     0.086970000000     0.0461797  
H398     H      0.340090000000     0.684190000000     0.124590000000     0.0452802  
H399     H      0.427540000000     0.595710000000     0.007030000000     0.0433849  
H400     H      0.339850000000     0.642880000000     0.214880000000     0.181721   
H401     H      0.442030000000     0.921550000000     0.284670000000     0.0425131  
H402     H      0.430770000000     0.985090000000     0.363000000000     0.0370288  
H403     H      0.490330000000     0.915870000000     0.371810000000     0.0446036  
H404     H      0.338690000000     0.883760000000     0.277280000000     0.0592368  
H405     H      0.473690000000     0.009330000000     0.376410000000     0.0527527  
H406     H      0.426120000000     0.850810000000     0.293370000000     0.0378088  
H407     H      0.369450000000     0.922790000000     0.288390000000     0.0373247  
H408     H      0.404170000000     0.831040000000     0.253340000000     0.0466582  
H409     H      0.511340000000     0.940790000000     0.409380000000     0.0656892  
H410     H      0.469910000000     0.949660000000     0.315050000000     0.0509457  
H411     H      0.449650000000     0.008000000000     0.402350000000     0.0468837  
H412     H      0.389920000000     0.885850000000     0.343500000000     0.0498033  
H413     H      0.429450000000     0.962200000000     0.389990000000     0.038152   
H414     H      0.348250000000     0.901330000000     0.248980000000     0.0457379  
H415     H      0.427360000000     0.874710000000     0.267030000000     0.0372723  
H416     H      0.395100000000     0.915240000000     0.264080000000     0.0371586  
H417     H      0.417960000000     0.913850000000     0.373900000000     0.0434261  
H418     H      0.464530000000     0.924180000000     0.395550000000     0.0350027  
H419     H      0.382350000000     0.828390000000     0.280570000000     0.0543036  
H420     H      0.556280000000     0.944660000000     0.353900000000     0.177757   
H421     H      0.385210000000     0.643430000000     0.371960000000     0.0454995  
H422     H      0.418790000000     0.720260000000     0.294150000000     0.0358868  
H423     H      0.337530000000     0.715890000000     0.331360000000     0.0370189  
H424     H      0.431300000000     0.600110000000     0.413360000000     0.0439706  
H425     H      0.391540000000     0.763080000000     0.282230000000     0.0549055  
H426     H      0.455560000000     0.688450000000     0.410650000000     0.0363203  
H427     H      0.428620000000     0.614080000000     0.370180000000     0.0351868  
H428     H      0.491770000000     0.657030000000     0.433720000000     0.0469838  
H429     H      0.313000000000     0.728400000000     0.290600000000     0.0701484  
H430     H      0.360750000000     0.669460000000     0.339390000000     0.0425225  
H431     H      0.394640000000     0.738760000000     0.256420000000     0.0455964  
H432     H      0.457930000000     0.702300000000     0.366620000000     0.0417977  
H433     H      0.390860000000     0.696080000000     0.283520000000     0.0425481  
H434     H      0.459830000000     0.582830000000     0.396110000000     0.045523   
H435     H      0.481050000000     0.668880000000     0.391450000000     0.0381993  
H436     H      0.465810000000     0.625750000000     0.369560000000     0.0413599  
H437     H      0.431700000000     0.730820000000     0.336370000000     0.0471962  
H438     H      0.344870000000     0.692850000000     0.305160000000     0.0340804  
H439     H      0.454410000000     0.651230000000     0.441130000000     0.0408437  
H440     H      0.351090000000     0.799000000000     0.325790000000     0.185661   
H441     H      0.154280000000     0.958330000000     0.325300000000     0.0468131  
H442     H      0.180820000000     0.853000000000     0.310560000000     0.0374719  
H443     H      0.254050000000     0.908660000000     0.314300000000     0.0378495  
H444     H      0.090290000000     0.970990000000     0.380690000000     0.0522725  
H445     H      0.223130000000     0.823450000000     0.301940000000     0.0550855  
H446     H      0.181540000000     0.986490000000     0.382290000000     0.03909    
H447     H      0.113800000000     0.925340000000     0.372910000000     0.0390109  
H448     H      0.154110000000     0.009260000000     0.417740000000     0.0552106  
H449     H      0.274510000000     0.884680000000     0.276250000000     0.0662324  
H450     H      0.183850000000     0.926090000000     0.299490000000     0.0427483  
H451     H      0.201930000000     0.827230000000     0.274300000000     0.0472594  
H452     H      0.183530000000     0.913360000000     0.390610000000     0.0443075  
H453     H      0.188420000000     0.876750000000     0.284830000000     0.0384232  
H454     H      0.085950000000     0.948370000000     0.407460000000     0.0563402  
H455     H      0.172740000000     0.961770000000     0.407030000000     0.0430717  
H456     H      0.133500000000     0.926710000000     0.401720000000     0.0416279  
H457     H      0.213080000000     0.880950000000     0.364760000000     0.0544852  
H458     H      0.231380000000     0.909660000000     0.287290000000     0.03327    
H459     H      0.137680000000     0.013940000000     0.387940000000     0.0439385  
H460     H      0.281100000000     0.839990000000     0.342080000000     0.184329   
H461     H      0.450270000000     0.948320000000     0.102430000000     0.0453785  
H462     H      0.411120000000     0.844620000000     0.114170000000     0.0368647  
H463     H      0.347030000000     0.910630000000     0.113780000000     0.037057   
H464     H      0.511170000000     0.964850000000     0.043180000000     0.0390239  
H465     H      0.365220000000     0.820600000000     0.121620000000     0.0535392  
H466     H      0.420200000000     0.982340000000     0.048930000000     0.0365069  
H467     H      0.486990000000     0.919240000000     0.050510000000     0.0355994  
H468     H      0.444820000000     0.007510000000     0.013520000000     0.046455   
H469     H      0.323740000000     0.887440000000     0.151250000000     0.068393   
H470     H      0.418720000000     0.917200000000     0.127640000000     0.0424463  
H471     H      0.386350000000     0.819870000000     0.149420000000     0.0477785  
H472     H      0.414840000000     0.910420000000     0.036110000000     0.0430871  
H473     H      0.406950000000     0.867540000000     0.140950000000     0.0382292  
H474     H      0.512020000000     0.944260000000     0.015060000000     0.0465206  
H475     H      0.426050000000     0.959510000000     0.022330000000     0.0399773  
H476     H      0.464780000000     0.922890000000     0.023260000000     0.0394344  
H477     H      0.383060000000     0.879470000000     0.061330000000     0.0532155  
H478     H      0.369760000000     0.906230000000     0.140450000000     0.0331663  
H479     H      0.464520000000     0.008850000000     0.042080000000     0.0380571  
H480     H      0.309030000000     0.846470000000     0.084190000000     0.17967    
H481     H      0.136810000000     0.637260000000     0.610940000000     0.0456562  
H482     H      0.176140000000     0.741250000000     0.617660000000     0.0368229  
H483     H      0.240630000000     0.675530000000     0.618180000000     0.038071   
H484     H      0.074550000000     0.618120000000     0.553730000000     0.0382165  
H485     H      0.222530000000     0.765090000000     0.623750000000     0.0519945  
H486     H      0.164330000000     0.600260000000     0.558030000000     0.0389085  
H487     H      0.098420000000     0.664440000000     0.559700000000     0.0360285  
H488     H      0.138470000000     0.574110000000     0.524090000000     0.0543372  
H489     H      0.264650000000     0.700060000000     0.654450000000     0.0696881  
H490     H      0.169230000000     0.669450000000     0.634230000000     0.0427838  
H491     H      0.201430000000     0.767660000000     0.651530000000     0.0480707  
H492     H      0.170210000000     0.671720000000     0.542500000000     0.0454082  
H493     H      0.180750000000     0.719490000000     0.645130000000     0.0388479  
H494     H      0.071720000000     0.638990000000     0.525800000000     0.0477102  
H495     H      0.158450000000     0.622380000000     0.530960000000     0.0467108  
H496     H      0.119720000000     0.660110000000     0.531960000000     0.0423921  
H497     H      0.202850000000     0.703760000000     0.565800000000     0.0540386  
H498     H      0.218460000000     0.680560000000     0.645140000000     0.0342914  
H499     H      0.118530000000     0.575340000000     0.552570000000     0.0382033  
H500     H      0.277370000000     0.736590000000     0.585650000000     0.179201   
H501     H      0.140770000000     0.655930000000     0.797560000000     0.0461963  
H502     H      0.101350000000     0.680800000000     0.883850000000     0.0373346  
H503     H      0.171350000000     0.621070000000     0.883320000000     0.038025   
H504     H      0.169430000000     0.724200000000     0.746950000000     0.0398427  
H505     H      0.108850000000     0.666600000000     0.926480000000     0.05344    
H506     H      0.215230000000     0.664450000000     0.791380000000     0.0375626  
H507     H      0.153510000000     0.732630000000     0.789110000000     0.0365386  
H508     H      0.245270000000     0.689280000000     0.759390000000     0.0500829  
H509     H      0.144290000000     0.589700000000     0.913690000000     0.0712401  
H510     H      0.121950000000     0.637230000000     0.836920000000     0.0430802  
H511     H      0.075520000000     0.651130000000     0.915730000000     0.0473074  
H512     H      0.197220000000     0.714140000000     0.837260000000     0.0454357  
H513     H      0.094890000000     0.643860000000     0.874340000000     0.0384101  
H514     H      0.183070000000     0.758640000000     0.757220000000     0.0475412  
H515     H      0.226290000000     0.700420000000     0.800560000000     0.0434044  
H516     H      0.189920000000     0.740580000000     0.799280000000     0.0421981  
H517     H      0.178200000000     0.695620000000     0.876660000000     0.0542028  
H518     H      0.135960000000     0.609210000000     0.873870000000     0.0340834  
H519     H      0.209980000000     0.678960000000     0.748490000000     0.0409004  
H520     H      0.180970000000     0.664180000000     0.943330000000     0.180324   
H521     H      0.203940000000     0.884920000000     0.587640000000     0.0463791  
H522     H      0.106830000000     0.919200000000     0.548840000000     0.0364081  
H523     H      0.172840000000     0.983250000000     0.548850000000     0.03764    
H524     H      0.178670000000     0.868290000000     0.677920000000     0.0400349  
H525     H      0.110070000000     0.934540000000     0.506470000000     0.0550404  
H526     H      0.227070000000     0.928160000000     0.634880000000     0.0393746  
H527     H      0.160600000000     0.864580000000     0.636060000000     0.0359567  
H528     H      0.257110000000     0.898060000000     0.663660000000     0.0555926  
H529     H      0.141730000000     0.013990000000     0.520400000000     0.0691852  
H530     H      0.182590000000     0.906600000000     0.550390000000     0.0536211  
H531     H      0.077360000000     0.949120000000     0.519310000000     0.0461245  
H532     H      0.151110000000     0.940590000000     0.633250000000     0.0458459  
H533     H      0.099020000000     0.955380000000     0.559630000000     0.0358632  
H534     H      0.189790000000     0.834120000000     0.665090000000     0.047636   
H535     H      0.234660000000     0.892250000000     0.623330000000     0.054581   
H536     H      0.195900000000     0.855050000000     0.624150000000     0.0430387  
H537     H      0.129680000000     0.962190000000     0.596000000000     0.0416793  
H538     H      0.137070000000     0.992040000000     0.559580000000     0.0316462  
H539     H      0.224020000000     0.911270000000     0.677060000000     0.0395757  
H540     H      0.180770000000     0.944220000000     0.484600000000     0.179883   
H541     H      0.447800000000     0.615570000000     0.598190000000     0.0421615  
H542     H      0.414390000000     0.713180000000     0.630450000000     0.03721    
H543     H      0.348290000000     0.649920000000     0.638640000000     0.0382322  
H544     H      0.468910000000     0.646670000000     0.509780000000     0.0422943  
H545     H      0.400650000000     0.715080000000     0.673390000000     0.0531514  
H546     H      0.410000000000     0.590000000000     0.548590000000     0.0365913  
H547     H      0.467940000000     0.661210000000     0.552370000000     0.0359476  
H548     H      0.444530000000     0.564140000000     0.519880000000     0.0451837  
H549     H      0.319750000000     0.685920000000     0.664710000000     0.0764182  
H550     H      0.425080000000     0.637870000000     0.634610000000     0.0538693  
H551     H      0.387670000000     0.747060000000     0.658190000000     0.0492798  
H552     H      0.391160000000     0.664800000000     0.550590000000     0.0473126  
H553     H      0.378000000000     0.721080000000     0.620210000000     0.0442687  
H554     H      0.502320000000     0.635430000000     0.523780000000     0.0467323  
H555     H      0.446000000000     0.585020000000     0.560930000000     0.037193   
H556     H      0.479340000000     0.625940000000     0.563040000000     0.0374476  
H557     H      0.368250000000     0.686850000000     0.586970000000     0.0461957  
H558     H      0.340090000000     0.684190000000     0.624590000000     0.0452869  
H559     H      0.427540000000     0.595710000000     0.507030000000     0.0434629  
H560     H      0.339850000000     0.642880000000     0.714880000000     0.181719   
H561     H      0.442030000000     0.921550000000     0.784670000000     0.0425074  
H562     H      0.430770000000     0.985090000000     0.863000000000     0.0370326  
H563     H      0.490330000000     0.915870000000     0.871810000000     0.0446122  
H564     H      0.338690000000     0.883760000000     0.777280000000     0.0592369  
H565     H      0.473690000000     0.009330000000     0.876410000000     0.0527457  
H566     H      0.426120000000     0.850810000000     0.793370000000     0.0378102  
H567     H      0.369450000000     0.922790000000     0.788390000000     0.037325   
H568     H      0.404170000000     0.831040000000     0.753340000000     0.0466567  
H569     H      0.511340000000     0.940790000000     0.909380000000     0.0657097  
H570     H      0.469910000000     0.949660000000     0.815050000000     0.0509473  
H571     H      0.449650000000     0.008000000000     0.902350000000     0.0468941  
H572     H      0.389920000000     0.885850000000     0.843500000000     0.0498069  
H573     H      0.429450000000     0.962200000000     0.889990000000     0.0381708  
H574     H      0.348250000000     0.901330000000     0.748980000000     0.0457373  
H575     H      0.427360000000     0.874710000000     0.767030000000     0.0372706  
H576     H      0.395100000000     0.915240000000     0.764080000000     0.0371567  
H577     H      0.417960000000     0.913850000000     0.873900000000     0.043488   
H578     H      0.464530000000     0.924180000000     0.895550000000     0.035025   
H579     H      0.382350000000     0.828390000000     0.780570000000     0.0543038  
H580     H      0.556280000000     0.944660000000     0.853900000000     0.177755   
H581     H      0.385210000000     0.643430000000     0.871960000000     0.0455121  
H582     H      0.418790000000     0.720260000000     0.794150000000     0.0358849  
H583     H      0.337530000000     0.715890000000     0.831360000000     0.0370255  
H584     H      0.431300000000     0.600110000000     0.913360000000     0.0439989  
H585     H      0.391540000000     0.763080000000     0.782230000000     0.0549056  
H586     H      0.455560000000     0.688450000000     0.910650000000     0.0363464  
H587     H      0.428620000000     0.614080000000     0.870180000000     0.0351883  
H588     H      0.491770000000     0.657030000000     0.933720000000     0.0470097  
H589     H      0.313000000000     0.728400000000     0.790610000000     0.0701424  
H590     H      0.360750000000     0.669460000000     0.839390000000     0.0425263  
H591     H      0.394640000000     0.738760000000     0.756420000000     0.0455945  
H592     H      0.457930000000     0.702300000000     0.866620000000     0.0418042  
H593     H      0.390860000000     0.696080000000     0.783520000000     0.0425457  
H594     H      0.459830000000     0.582830000000     0.896110000000     0.0455166  
H595     H      0.481050000000     0.668880000000     0.891450000000     0.0382019  
H596     H      0.465810000000     0.625750000000     0.869560000000     0.0413539  
H597     H      0.431700000000     0.730820000000     0.836370000000     0.0471997  
H598     H      0.344870000000     0.692850000000     0.805160000000     0.0340808  
H599     H      0.454410000000     0.651230000000     0.941130000000     0.040897   
H600     H      0.351090000000     0.799000000000     0.825790000000     0.185667   
H601     H      0.154280000000     0.958330000000     0.825300000000     0.0468104  
H602     H      0.180820000000     0.853000000000     0.810560000000     0.0374626  
H603     H      0.254050000000     0.908660000000     0.814300000000     0.0378525  
H604     H      0.090290000000     0.970990000000     0.880690000000     0.0522698  
H605     H      0.223130000000     0.823450000000     0.801940000000     0.0550942  
H606     H      0.181540000000     0.986490000000     0.882290000000     0.039097   
H607     H      0.113800000000     0.925340000000     0.872910000000     0.0390168  
H608     H      0.154110000000     0.009260000000     0.917740000000     0.055222   
H609     H      0.274510000000     0.884680000000     0.776250000000     0.0662318  
H610     H      0.183850000000     0.926090000000     0.799490000000     0.0427463  
H611     H      0.201930000000     0.827230000000     0.774300000000     0.0472643  
H612     H      0.183530000000     0.913360000000     0.890610000000     0.044325   
H613     H      0.188420000000     0.876750000000     0.784830000000     0.0383993  
H614     H      0.085950000000     0.948370000000     0.907460000000     0.0563542  
H615     H      0.172740000000     0.961770000000     0.907030000000     0.0430886  
H616     H      0.133500000000     0.926710000000     0.901720000000     0.0416469  
H617     H      0.213080000000     0.880950000000     0.864760000000     0.0544988  
H618     H      0.231380000000     0.909660000000     0.787290000000     0.0332681  
H619     H      0.137680000000     0.013940000000     0.887940000000     0.043937   
H620     H      0.281100000000     0.839990000000     0.842080000000     0.18434    
H621     H      0.450270000000     0.948320000000     0.602430000000     0.0453773  
H622     H      0.411120000000     0.844620000000     0.614170000000     0.0368715  
H623     H      0.347030000000     0.910630000000     0.613780000000     0.0370612  
H624     H      0.511170000000     0.964850000000     0.543180000000     0.0390502  
H625     H      0.365220000000     0.820600000000     0.621620000000     0.0535458  
H626     H      0.420200000000     0.982340000000     0.548930000000     0.0365226  
H627     H      0.486990000000     0.919240000000     0.550510000000     0.0356147  
H628     H      0.444820000000     0.007510000000     0.513520000000     0.0465349  
H629     H      0.323740000000     0.887440000000     0.651250000000     0.0683905  
H630     H      0.418720000000     0.917200000000     0.627640000000     0.0424486  
H631     H      0.386350000000     0.819870000000     0.649420000000     0.0477805  
H632     H      0.414840000000     0.910420000000     0.536110000000     0.0431249  
H633     H      0.406950000000     0.867540000000     0.640950000000     0.0382279  
H634     H      0.512020000000     0.944260000000     0.515060000000     0.0465976  
H635     H      0.426050000000     0.959510000000     0.522330000000     0.0400211  
H636     H      0.464780000000     0.922890000000     0.523260000000     0.0394776  
H637     H      0.383060000000     0.879470000000     0.561330000000     0.0532331  
H638     H      0.369760000000     0.906230000000     0.640450000000     0.0331628  
H639     H      0.464520000000     0.008850000000     0.542080000000     0.0380849  
H640     H      0.309030000000     0.846470000000     0.584190000000     0.179705   
H641     H      0.636810000000     0.137260000000     0.110940000000     0.0456222  
H642     H      0.676140000000     0.241250000000     0.117660000000     0.0368187  
H643     H      0.740630000000     0.175530000000     0.118180000000     0.0380495  
H644     H      0.574550000000     0.118120000000     0.053730000000     0.0381725  
H645     H      0.722530000000     0.265090000000     0.123750000000     0.0519944  
H646     H      0.664330000000     0.100260000000     0.058030000000     0.0388361  
H647     H      0.598420000000     0.164440000000     0.059700000000     0.0360145  
H648     H      0.638470000000     0.074110000000     0.024090000000     0.0542387  
H649     H      0.764650000000     0.200060000000     0.154450000000     0.0696592  
H650     H      0.669220000000     0.169450000000     0.134230000000     0.042772   
H651     H      0.701430000000     0.267660000000     0.151530000000     0.0480709  
H652     H      0.670210000000     0.171720000000     0.042500000000     0.0453718  
H653     H      0.680750000000     0.219490000000     0.145130000000     0.0388437  
H654     H      0.571720000000     0.138990000000     0.025800000000     0.0476434  
H655     H      0.658450000000     0.122380000000     0.030960000000     0.0466463  
H656     H      0.619720000000     0.160110000000     0.031960000000     0.0423567  
H657     H      0.702850000000     0.203760000000     0.065800000000     0.0540091  
H658     H      0.718450000000     0.180560000000     0.145140000000     0.0342805  
H659     H      0.618530000000     0.075340000000     0.052570000000     0.0381345  
H660     H      0.777380000000     0.236590000000     0.085650000000     0.178937   
H661     H      0.640770000000     0.155930000000     0.297560000000     0.0461709  
H662     H      0.601350000000     0.180800000000     0.383850000000     0.0372941  
H663     H      0.671350000000     0.121070000000     0.383320000000     0.0379839  
H664     H      0.669440000000     0.224200000000     0.246950000000     0.0398734  
H665     H      0.608850000000     0.166600000000     0.426480000000     0.0534294  
H666     H      0.715230000000     0.164450000000     0.291380000000     0.0375528  
H667     H      0.653510000000     0.232640000000     0.289110000000     0.036532   
H668     H      0.745270000000     0.189280000000     0.259390000000     0.0500526  
H669     H      0.644290000000     0.089700000000     0.413690000000     0.0711994  
H670     H      0.621950000000     0.137230000000     0.336920000000     0.0430637  
H671     H      0.575520000000     0.151130000000     0.415730000000     0.0473067  
H672     H      0.697220000000     0.214150000000     0.337260000000     0.0453799  
H673     H      0.594890000000     0.143860000000     0.374340000000     0.0383636  
H674     H      0.683070000000     0.258640000000     0.257220000000     0.0475565  
H675     H      0.726290000000     0.200420000000     0.300560000000     0.0434131  
H676     H      0.689920000000     0.240580000000     0.299270000000     0.0422031  
H677     H      0.678200000000     0.195610000000     0.376660000000     0.0542105  
H678     H      0.635960000000     0.109210000000     0.373870000000     0.0340503  
H679     H      0.709980000000     0.178960000000     0.248490000000     0.0408677  
H680     H      0.680970000000     0.164180000000     0.443330000000     0.180147   
H681     H      0.703940000000     0.384920000000     0.087640000000     0.0463792  
H682     H      0.606830000000     0.419200000000     0.048840000000     0.036385   
H683     H      0.672840000000     0.483240000000     0.048850000000     0.03752    
H684     H      0.678670000000     0.368290000000     0.177920000000     0.0400256  
H685     H      0.610060000000     0.434540000000     0.006470000000     0.0549527  
H686     H      0.727070000000     0.428160000000     0.134880000000     0.0392884  
H687     H      0.660600000000     0.364580000000     0.136060000000     0.0359498  
H688     H      0.757100000000     0.398070000000     0.163660000000     0.0555836  
H689     H      0.641730000000     0.513990000000     0.020400000000     0.0695008  
H690     H      0.682580000000     0.406610000000     0.050390000000     0.0535885  
H691     H      0.577360000000     0.449120000000     0.019320000000     0.0460388  
H692     H      0.651110000000     0.440590000000     0.133250000000     0.0458219  
H693     H      0.599020000000     0.455380000000     0.059630000000     0.0358174  
H694     H      0.689790000000     0.334120000000     0.165090000000     0.0476385  
H695     H      0.734660000000     0.392250000000     0.123330000000     0.054528   
H696     H      0.695900000000     0.355050000000     0.124150000000     0.0430364  
H697     H      0.629670000000     0.462190000000     0.096000000000     0.0415956  
H698     H      0.637070000000     0.492040000000     0.059580000000     0.0315111  
H699     H      0.724020000000     0.411270000000     0.177060000000     0.0395584  
H700     H      0.680770000000     0.444220000000     0.984600000000     0.179822   
H701     H      0.947800000000     0.115570000000     0.098190000000     0.0421447  
H702     H      0.914390000000     0.213180000000     0.130450000000     0.037212   
H703     H      0.848290000000     0.149920000000     0.138640000000     0.0381914  
H704     H      0.968910000000     0.146670000000     0.009780000000     0.042209   
H705     H      0.900650000000     0.215080000000     0.173390000000     0.0531541  
H706     H      0.910000000000     0.090000000000     0.048590000000     0.0365363  
H707     H      0.967940000000     0.161210000000     0.052360000000     0.0359532  
H708     H      0.944530000000     0.064140000000     0.019880000000     0.0450513  
H709     H      0.819750000000     0.185920000000     0.164710000000     0.0764169  
H710     H      0.925070000000     0.137870000000     0.134610000000     0.0538671  
H711     H      0.887670000000     0.247060000000     0.158190000000     0.049284   
H712     H      0.891170000000     0.164800000000     0.050590000000     0.0472891  
H713     H      0.878000000000     0.221080000000     0.120210000000     0.0442682  
H714     H      0.002320000000     0.135430000000     0.023780000000     0.0466054  
H715     H      0.946000000000     0.085020000000     0.060930000000     0.0371587  
H716     H      0.979340000000     0.125940000000     0.063040000000     0.037449   
H717     H      0.868250000000     0.186850000000     0.086970000000     0.0461736  
H718     H      0.840090000000     0.184190000000     0.124590000000     0.0452612  
H719     H      0.927540000000     0.095710000000     0.007030000000     0.0433306  
H720     H      0.839850000000     0.142880000000     0.214880000000     0.181791   
H721     H      0.942030000000     0.421540000000     0.284670000000     0.0424995  
H722     H      0.930770000000     0.485090000000     0.363000000000     0.0368445  
H723     H      0.990330000000     0.415870000000     0.371810000000     0.0446023  
H724     H      0.838690000000     0.383760000000     0.277280000000     0.0592086  
H725     H      0.973690000000     0.509330000000     0.376410000000     0.0533622  
H726     H      0.926120000000     0.350810000000     0.293370000000     0.0378107  
H727     H      0.869450000000     0.422790000000     0.288390000000     0.0372875  
H728     H      0.904170000000     0.331040000000     0.253340000000     0.0466698  
H729     H      0.011340000000     0.440790000000     0.409380000000     0.0657125  
H730     H      0.969910000000     0.449660000000     0.315050000000     0.0508775  
H731     H      0.949660000000     0.508000000000     0.402350000000     0.0474529  
H732     H      0.889920000000     0.385850000000     0.343500000000     0.0497957  
H733     H      0.929450000000     0.462200000000     0.389990000000     0.038023   
H734     H      0.848250000000     0.401330000000     0.248980000000     0.0457014  
H735     H      0.927360000000     0.374710000000     0.267030000000     0.0372645  
H736     H      0.895100000000     0.415240000000     0.264080000000     0.0371337  
H737     H      0.917960000000     0.413850000000     0.373900000000     0.0434103  
H738     H      0.964530000000     0.424180000000     0.395550000000     0.0349873  
H739     H      0.882350000000     0.328390000000     0.280570000000     0.0543083  
H740     H      0.056280000000     0.444660000000     0.353900000000     0.177753   
H741     H      0.885210000000     0.143430000000     0.371960000000     0.0454752  
H742     H      0.918790000000     0.220260000000     0.294150000000     0.0359091  
H743     H      0.837530000000     0.215890000000     0.331360000000     0.0370159  
H744     H      0.931300000000     0.100110000000     0.413360000000     0.0439533  
H745     H      0.891540000000     0.263080000000     0.282230000000     0.0549362  
H746     H      0.955560000000     0.188450000000     0.410650000000     0.0363333  
H747     H      0.928620000000     0.114080000000     0.370180000000     0.0351509  
H748     H      0.991770000000     0.157030000000     0.433720000000     0.0469926  
H749     H      0.813000000000     0.228400000000     0.290600000000     0.0701575  
H750     H      0.860750000000     0.169460000000     0.339390000000     0.0425056  
H751     H      0.894640000000     0.238760000000     0.256420000000     0.0456327  
H752     H      0.957930000000     0.202300000000     0.366620000000     0.0418067  
H753     H      0.890860000000     0.196080000000     0.283520000000     0.04255    
H754     H      0.959830000000     0.082830000000     0.396110000000     0.0455007  
H755     H      0.981050000000     0.168880000000     0.391450000000     0.0382143  
H756     H      0.965810000000     0.125750000000     0.369560000000     0.0413426  
H757     H      0.931700000000     0.230820000000     0.336370000000     0.0472039  
H758     H      0.844870000000     0.192850000000     0.305160000000     0.0340648  
H759     H      0.954410000000     0.151230000000     0.441130000000     0.0408314  
H760     H      0.851090000000     0.299000000000     0.325790000000     0.18551    
H761     H      0.654280000000     0.458330000000     0.325300000000     0.0467495  
H762     H      0.680820000000     0.353000000000     0.310560000000     0.0374525  
H763     H      0.754050000000     0.408660000000     0.314300000000     0.0378125  
H764     H      0.590290000000     0.470980000000     0.380690000000     0.0522369  
H765     H      0.723130000000     0.323450000000     0.301940000000     0.0550988  
H766     H      0.681540000000     0.486490000000     0.382290000000     0.0388918  
H767     H      0.613800000000     0.425340000000     0.372910000000     0.0390022  
H768     H      0.654110000000     0.509260000000     0.417740000000     0.0557714  
H769     H      0.774510000000     0.384680000000     0.276250000000     0.0662152  
H770     H      0.683850000000     0.426090000000     0.299490000000     0.0427229  
H771     H      0.701930000000     0.327230000000     0.274300000000     0.047265   
H772     H      0.683530000000     0.413360000000     0.390610000000     0.0442912  
H773     H      0.688410000000     0.376750000000     0.284830000000     0.0383909  
H774     H      0.585950000000     0.448370000000     0.407460000000     0.0563455  
H775     H      0.672740000000     0.461770000000     0.407030000000     0.042953   
H776     H      0.633500000000     0.426710000000     0.401720000000     0.0416247  
H777     H      0.713080000000     0.380960000000     0.364760000000     0.0545073  
H778     H      0.731380000000     0.409660000000     0.287290000000     0.0332416  
H779     H      0.637680000000     0.513940000000     0.387940000000     0.0445089  
H780     H      0.781100000000     0.339990000000     0.342080000000     0.184315   
H781     H      0.950270000000     0.448320000000     0.102430000000     0.04533    
H782     H      0.911110000000     0.344620000000     0.114170000000     0.0368877  
H783     H      0.847030000000     0.410630000000     0.113780000000     0.0370228  
H784     H      0.011170000000     0.464850000000     0.043180000000     0.0389106  
H785     H      0.865220000000     0.320600000000     0.121620000000     0.0535415  
H786     H      0.920200000000     0.482340000000     0.048930000000     0.0363049  
H787     H      0.986990000000     0.419240000000     0.050510000000     0.0356365  
H788     H      0.944830000000     0.507510000000     0.013520000000     0.0470145  
H789     H      0.823740000000     0.387440000000     0.151250000000     0.068378   
H790     H      0.918720000000     0.417200000000     0.127640000000     0.0424234  
H791     H      0.886350000000     0.319870000000     0.149420000000     0.0477825  
H792     H      0.914840000000     0.410420000000     0.036110000000     0.0430764  
H793     H      0.906950000000     0.367550000000     0.140950000000     0.0382284  
H794     H      0.012020000000     0.444260000000     0.015060000000     0.0464625  
H795     H      0.926050000000     0.459510000000     0.022330000000     0.0398478  
H796     H      0.964780000000     0.422890000000     0.023260000000     0.0394563  
H797     H      0.883060000000     0.379470000000     0.061330000000     0.0532109  
H798     H      0.869760000000     0.406230000000     0.140450000000     0.0331385  
H799     H      0.964520000000     0.508850000000     0.042080000000     0.0386341  
H800     H      0.809030000000     0.346470000000     0.084190000000     0.179668   
H801     H      0.636810000000     0.137260000000     0.610940000000     0.0456247  
H802     H      0.676140000000     0.241250000000     0.617660000000     0.0368261  
H803     H      0.740630000000     0.175530000000     0.618180000000     0.0380553  
H804     H      0.574550000000     0.118120000000     0.553730000000     0.0381809  
H805     H      0.722530000000     0.265090000000     0.623750000000     0.0520006  
H806     H      0.664330000000     0.100260000000     0.558030000000     0.0388559  
H807     H      0.598420000000     0.164440000000     0.559700000000     0.0360322  
H808     H      0.638470000000     0.074110000000     0.524090000000     0.0543013  
H809     H      0.764650000000     0.200060000000     0.654450000000     0.0696655  
H810     H      0.669220000000     0.169450000000     0.634230000000     0.0427666  
H811     H      0.701430000000     0.267660000000     0.651530000000     0.0480718  
H812     H      0.670210000000     0.171720000000     0.542500000000     0.0454061  
H813     H      0.680750000000     0.219490000000     0.645130000000     0.0388436  
H814     H      0.571720000000     0.138990000000     0.525800000000     0.0477022  
H815     H      0.658450000000     0.122380000000     0.530960000000     0.0466947  
H816     H      0.619720000000     0.160110000000     0.531960000000     0.0424017  
H817     H      0.702850000000     0.203760000000     0.565800000000     0.0540413  
H818     H      0.718450000000     0.180560000000     0.645140000000     0.0342768  
H819     H      0.618530000000     0.075340000000     0.552570000000     0.0381424  
H820     H      0.777380000000     0.236590000000     0.585650000000     0.178924   
H821     H      0.640770000000     0.155930000000     0.797560000000     0.0461674  
H822     H      0.601350000000     0.180800000000     0.883850000000     0.0373026  
H823     H      0.671350000000     0.121070000000     0.883320000000     0.0379899  
H824     H      0.669440000000     0.224200000000     0.746950000000     0.0398726  
H825     H      0.608850000000     0.166600000000     0.926480000000     0.0534607  
H826     H      0.715230000000     0.164450000000     0.791380000000     0.0375521  
H827     H      0.653510000000     0.232640000000     0.789110000000     0.0365217  
H828     H      0.745270000000     0.189280000000     0.759390000000     0.050052   
H829     H      0.644290000000     0.089700000000     0.913690000000     0.0712024  
H830     H      0.621950000000     0.137230000000     0.836920000000     0.0430611  
H831     H      0.575520000000     0.151130000000     0.915730000000     0.0473184  
H832     H      0.697220000000     0.214150000000     0.837260000000     0.0453843  
H833     H      0.594890000000     0.143860000000     0.874340000000     0.0383607  
H834     H      0.683070000000     0.258640000000     0.757220000000     0.0475589  
H835     H      0.726290000000     0.200420000000     0.800560000000     0.0434148  
H836     H      0.689920000000     0.240580000000     0.799280000000     0.0421834  
H837     H      0.678200000000     0.195610000000     0.876660000000     0.0542251  
H838     H      0.635960000000     0.109210000000     0.873870000000     0.0340487  
H839     H      0.709980000000     0.178960000000     0.748490000000     0.040865   
H840     H      0.680970000000     0.164180000000     0.943330000000     0.180196   
H841     H      0.703940000000     0.384920000000     0.587640000000     0.0463738  
H842     H      0.606830000000     0.419200000000     0.548840000000     0.0364028  
H843     H      0.672840000000     0.483240000000     0.548850000000     0.0375268  
H844     H      0.678670000000     0.368290000000     0.677920000000     0.0400244  
H845     H      0.610060000000     0.434540000000     0.506470000000     0.0550488  
H846     H      0.727070000000     0.428160000000     0.634880000000     0.0392947  
H847     H      0.660600000000     0.364580000000     0.636060000000     0.0359545  
H848     H      0.757100000000     0.398070000000     0.663660000000     0.0555777  
H849     H      0.641730000000     0.513990000000     0.520400000000     0.0696291  
H850     H      0.682580000000     0.406610000000     0.550390000000     0.0536399  
H851     H      0.577360000000     0.449120000000     0.519310000000     0.0461213  
H852     H      0.651110000000     0.440590000000     0.633250000000     0.0458076  
H853     H      0.599020000000     0.455380000000     0.559630000000     0.0358228  
H854     H      0.689790000000     0.334120000000     0.665090000000     0.0476371  
H855     H      0.734660000000     0.392250000000     0.623330000000     0.0545351  
H856     H      0.695900000000     0.355050000000     0.624150000000     0.0430411  
H857     H      0.629670000000     0.462190000000     0.596000000000     0.0416053  
H858     H      0.637070000000     0.492040000000     0.559580000000     0.0315034  
H859     H      0.724020000000     0.411270000000     0.677060000000     0.0395572  
H860     H      0.680770000000     0.444220000000     0.484600000000     0.179867   
H861     H      0.947800000000     0.115570000000     0.598190000000     0.0421367  
H862     H      0.914390000000     0.213180000000     0.630450000000     0.037216   
H863     H      0.848290000000     0.149920000000     0.638640000000     0.0381945  
H864     H      0.968910000000     0.146670000000     0.509780000000     0.0422909  
H865     H      0.900650000000     0.215080000000     0.673390000000     0.0531521  
H866     H      0.910000000000     0.090000000000     0.548590000000     0.0365546  
H867     H      0.967940000000     0.161210000000     0.552370000000     0.0359648  
H868     H      0.944530000000     0.064140000000     0.519880000000     0.0451196  
H869     H      0.819750000000     0.185920000000     0.664710000000     0.0764157  
H870     H      0.925070000000     0.137870000000     0.634610000000     0.0538652  
H871     H      0.887670000000     0.247060000000     0.658190000000     0.0492842  
H872     H      0.891170000000     0.164800000000     0.550590000000     0.0473191  
H873     H      0.878000000000     0.221080000000     0.620210000000     0.0442755  
H874     H      0.002320000000     0.135430000000     0.523780000000     0.0466827  
H875     H      0.946000000000     0.085020000000     0.560930000000     0.0371647  
H876     H      0.979340000000     0.125940000000     0.563040000000     0.0374514  
H877     H      0.868250000000     0.186850000000     0.586970000000     0.0461896  
H878     H      0.840090000000     0.184190000000     0.624590000000     0.0452679  
H879     H      0.927540000000     0.095710000000     0.507030000000     0.0434082  
H880     H      0.839850000000     0.142880000000     0.714880000000     0.181789   
H881     H      0.942030000000     0.421540000000     0.784670000000     0.0424937  
H882     H      0.930770000000     0.485090000000     0.863000000000     0.0368485  
H883     H      0.990330000000     0.415870000000     0.871810000000     0.0446108  
H884     H      0.838690000000     0.383760000000     0.777280000000     0.0592086  
H885     H      0.973690000000     0.509330000000     0.876410000000     0.053355   
H886     H      0.926120000000     0.350810000000     0.793370000000     0.0378121  
H887     H      0.869450000000     0.422790000000     0.788390000000     0.0372878  
H888     H      0.904170000000     0.331040000000     0.753340000000     0.0466682  
H889     H      0.011340000000     0.440790000000     0.909380000000     0.0657329  
H890     H      0.969910000000     0.449660000000     0.815050000000     0.0508791  
H891     H      0.949660000000     0.508000000000     0.902350000000     0.0474631  
H892     H      0.889920000000     0.385850000000     0.843500000000     0.0497993  
H893     H      0.929450000000     0.462200000000     0.889990000000     0.0380419  
H894     H      0.848250000000     0.401330000000     0.748980000000     0.0457007  
H895     H      0.927360000000     0.374710000000     0.767030000000     0.0372628  
H896     H      0.895100000000     0.415240000000     0.764080000000     0.0371317  
H897     H      0.917960000000     0.413850000000     0.873900000000     0.0434721  
H898     H      0.964530000000     0.424180000000     0.895550000000     0.0350096  
H899     H      0.882350000000     0.328390000000     0.780570000000     0.0543085  
H900     H      0.056280000000     0.444660000000     0.853900000000     0.177751   
H901     H      0.885210000000     0.143430000000     0.871960000000     0.0454878  
H902     H      0.918790000000     0.220260000000     0.794150000000     0.0359072  
H903     H      0.837530000000     0.215890000000     0.831360000000     0.0370224  
H904     H      0.931300000000     0.100110000000     0.913360000000     0.0439816  
H905     H      0.891540000000     0.263080000000     0.782230000000     0.0549363  
H906     H      0.955560000000     0.188450000000     0.910650000000     0.0363594  
H907     H      0.928620000000     0.114080000000     0.870180000000     0.0351524  
H908     H      0.991770000000     0.157030000000     0.933720000000     0.0470182  
H909     H      0.813000000000     0.228400000000     0.790610000000     0.0701516  
H910     H      0.860750000000     0.169460000000     0.839390000000     0.0425093  
H911     H      0.894640000000     0.238760000000     0.756420000000     0.0456308  
H912     H      0.957930000000     0.202300000000     0.866620000000     0.0418131  
H913     H      0.890860000000     0.196080000000     0.783520000000     0.0425475  
H914     H      0.959830000000     0.082830000000     0.896110000000     0.0454943  
H915     H      0.981050000000     0.168880000000     0.891450000000     0.0382168  
H916     H      0.965810000000     0.125750000000     0.869560000000     0.0413365  
H917     H      0.931700000000     0.230820000000     0.836370000000     0.0472074  
H918     H      0.844870000000     0.192850000000     0.805160000000     0.0340652  
H919     H      0.954410000000     0.151230000000     0.941130000000     0.0408845  
H920     H      0.851090000000     0.299000000000     0.825790000000     0.185516   
H921     H      0.654280000000     0.458330000000     0.825300000000     0.0467468  
H922     H      0.680820000000     0.353000000000     0.810560000000     0.0374431  
H923     H      0.754050000000     0.408660000000     0.814300000000     0.0378156  
H924     H      0.590290000000     0.470980000000     0.880690000000     0.0522342  
H925     H      0.723130000000     0.323450000000     0.801940000000     0.0551075  
H926     H      0.681540000000     0.486490000000     0.882290000000     0.0388989  
H927     H      0.613800000000     0.425340000000     0.872910000000     0.0390081  
H928     H      0.654110000000     0.509260000000     0.917740000000     0.0557825  
H929     H      0.774510000000     0.384680000000     0.776250000000     0.0662146  
H930     H      0.683850000000     0.426090000000     0.799490000000     0.042721   
H931     H      0.701930000000     0.327230000000     0.774300000000     0.0472699  
H932     H      0.683530000000     0.413360000000     0.890610000000     0.0443086  
H933     H      0.688410000000     0.376750000000     0.784830000000     0.038367   
H934     H      0.585950000000     0.448370000000     0.907460000000     0.0563594  
H935     H      0.672740000000     0.461770000000     0.907030000000     0.0429699  
H936     H      0.633500000000     0.426710000000     0.901720000000     0.0416437  
H937     H      0.713080000000     0.380960000000     0.864760000000     0.0545208  
H938     H      0.731380000000     0.409660000000     0.787290000000     0.0332397  
H939     H      0.637680000000     0.513940000000     0.887940000000     0.0445072  
H940     H      0.781100000000     0.339990000000     0.842080000000     0.184326   
H941     H      0.950270000000     0.448320000000     0.602430000000     0.0453287  
H942     H      0.911110000000     0.344620000000     0.614170000000     0.0368944  
H943     H      0.847030000000     0.410630000000     0.613780000000     0.037027   
H944     H      0.011170000000     0.464850000000     0.543180000000     0.0389375  
H945     H      0.865220000000     0.320600000000     0.621620000000     0.0535481  
H946     H      0.920200000000     0.482340000000     0.548930000000     0.0363206  
H947     H      0.986990000000     0.419240000000     0.550510000000     0.0356515  
H948     H      0.944830000000     0.507510000000     0.513520000000     0.0470946  
H949     H      0.823740000000     0.387440000000     0.651250000000     0.0683755  
H950     H      0.918720000000     0.417200000000     0.627640000000     0.0424256  
H951     H      0.886350000000     0.319870000000     0.649420000000     0.0477845  
H952     H      0.914840000000     0.410420000000     0.536110000000     0.0431141  
H953     H      0.906950000000     0.367550000000     0.640950000000     0.0382271  
H954     H      0.012020000000     0.444260000000     0.515060000000     0.0465402  
H955     H      0.926050000000     0.459510000000     0.522330000000     0.0398914  
H956     H      0.964780000000     0.422890000000     0.523260000000     0.0394993  
H957     H      0.883060000000     0.379470000000     0.561330000000     0.0532285  
H958     H      0.869760000000     0.406230000000     0.640450000000     0.0331351  
H959     H      0.964520000000     0.508850000000     0.542080000000     0.038662   
H960     H      0.809030000000     0.346470000000     0.584190000000     0.179703   
H961     H      0.636810000000     0.637260000000     0.110940000000     0.0456552  
H962     H      0.676140000000     0.741250000000     0.117660000000     0.0368177  
H963     H      0.740630000000     0.675530000000     0.118180000000     0.0380689  
H964     H      0.574550000000     0.618120000000     0.053730000000     0.0382127  
H965     H      0.722530000000     0.765090000000     0.123750000000     0.0519918  
H966     H      0.664330000000     0.600260000000     0.058030000000     0.038889   
H967     H      0.598420000000     0.664440000000     0.059700000000     0.036014   
H968     H      0.638470000000     0.574110000000     0.024090000000     0.0542742  
H969     H      0.764650000000     0.700060000000     0.154450000000     0.069667   
H970     H      0.669220000000     0.669450000000     0.134230000000     0.0427878  
H971     H      0.701430000000     0.767660000000     0.151530000000     0.0480703  
H972     H      0.670210000000     0.671720000000     0.042500000000     0.0453755  
H973     H      0.680750000000     0.719490000000     0.145130000000     0.038848   
H974     H      0.571720000000     0.638990000000     0.025800000000     0.0476545  
H975     H      0.658450000000     0.622380000000     0.030960000000     0.0466628  
H976     H      0.619720000000     0.660110000000     0.031960000000     0.0423489  
H977     H      0.702850000000     0.703760000000     0.065800000000     0.0540105  
H978     H      0.718450000000     0.680560000000     0.145140000000     0.0342973  
H979     H      0.618530000000     0.575340000000     0.052570000000     0.038197   
H980     H      0.777380000000     0.736590000000     0.085650000000     0.178938   
H981     H      0.640770000000     0.655930000000     0.297560000000     0.0462026  
H982     H      0.601350000000     0.680800000000     0.383850000000     0.0372949  
H983     H      0.671350000000     0.621070000000     0.383320000000     0.038016   
H984     H      0.669440000000     0.724200000000     0.246950000000     0.0398667  
H985     H      0.608850000000     0.666600000000     0.426480000000     0.0534249  
H986     H      0.715230000000     0.664450000000     0.291380000000     0.037574   
H987     H      0.653510000000     0.732630000000     0.289110000000     0.0365494  
H988     H      0.745270000000     0.689280000000     0.259390000000     0.05008    
H989     H      0.644290000000     0.589700000000     0.413690000000     0.0712272  
H990     H      0.621950000000     0.637230000000     0.336920000000     0.0430854  
H991     H      0.575520000000     0.651130000000     0.415730000000     0.0473088  
H992     H      0.697220000000     0.714140000000     0.337260000000     0.0454366  
H993     H      0.594890000000     0.643860000000     0.374340000000     0.03838    
H994     H      0.683070000000     0.758640000000     0.257220000000     0.0475493  
H995     H      0.726290000000     0.700420000000     0.300560000000     0.0434119  
H996     H      0.689920000000     0.740580000000     0.299270000000     0.042211   
H997     H      0.678200000000     0.695620000000     0.376660000000     0.0541837  
H998     H      0.635960000000     0.609210000000     0.373870000000     0.0340865  
H999     H      0.709980000000     0.678960000000     0.248490000000     0.0408997  
H1000    H      0.680970000000     0.664180000000     0.443330000000     0.180154   
H1001    H      0.703940000000     0.884920000000     0.087640000000     0.046386   
H1002    H      0.606830000000     0.919200000000     0.048840000000     0.0363916  
H1003    H      0.672840000000     0.983250000000     0.048850000000     0.0376324  
H1004    H      0.678670000000     0.868290000000     0.177920000000     0.0400384  
H1005    H      0.610060000000     0.934540000000     0.006470000000     0.0549411  
H1006    H      0.727070000000     0.928160000000     0.134880000000     0.0393307  
H1007    H      0.660600000000     0.864580000000     0.136060000000     0.0359532  
H1008    H      0.757100000000     0.898060000000     0.163660000000     0.0556226  
H1009    H      0.641730000000     0.013990000000     0.020400000000     0.0690603  
H1010    H      0.682580000000     0.906600000000     0.050390000000     0.0535795  
H1011    H      0.577360000000     0.949120000000     0.019320000000     0.0460435  
H1012    H      0.651110000000     0.940590000000     0.133250000000     0.0458665  
H1013    H      0.599020000000     0.955380000000     0.059630000000     0.0358582  
H1014    H      0.689790000000     0.834120000000     0.165090000000     0.0476392  
H1015    H      0.734660000000     0.892250000000     0.123330000000     0.0545343  
H1016    H      0.695900000000     0.855050000000     0.124150000000     0.0430338  
H1017    H      0.629670000000     0.962190000000     0.096000000000     0.041646   
H1018    H      0.637070000000     0.992040000000     0.059580000000     0.0316543  
H1019    H      0.724020000000     0.911270000000     0.177060000000     0.039599   
H1020    H      0.680770000000     0.944220000000     0.984600000000     0.179838   
H1021    H      0.947800000000     0.615570000000     0.098190000000     0.0421745  
H1022    H      0.914390000000     0.713180000000     0.130450000000     0.0372135  
H1023    H      0.848290000000     0.649920000000     0.138640000000     0.038217   
H1024    H      0.968910000000     0.646670000000     0.009780000000     0.0422071  
H1025    H      0.900650000000     0.715080000000     0.173390000000     0.0531568  
H1026    H      0.910000000000     0.590000000000     0.048590000000     0.0365835  
H1027    H      0.967940000000     0.661210000000     0.052360000000     0.0359538  
H1028    H      0.944530000000     0.564140000000     0.019880000000     0.0450835  
H1029    H      0.819750000000     0.685920000000     0.164710000000     0.0764228  
H1030    H      0.925070000000     0.637870000000     0.134610000000     0.0538946  
H1031    H      0.887670000000     0.747060000000     0.158190000000     0.0492819  
H1032    H      0.891170000000     0.664800000000     0.050590000000     0.047298   
H1033    H      0.878000000000     0.721080000000     0.120210000000     0.0442669  
H1034    H      0.002320000000     0.635430000000     0.023780000000     0.0466119  
H1035    H      0.946000000000     0.585020000000     0.060930000000     0.0372018  
H1036    H      0.979340000000     0.625940000000     0.063040000000     0.0374656  
H1037    H      0.868250000000     0.686850000000     0.086970000000     0.0461756  
H1038    H      0.840090000000     0.684190000000     0.124590000000     0.0452682  
H1039    H      0.927540000000     0.595710000000     0.007030000000     0.0433508  
H1040    H      0.839850000000     0.642880000000     0.214880000000     0.181723   
H1041    H      0.942030000000     0.921550000000     0.284670000000     0.042523   
H1042    H      0.930770000000     0.985090000000     0.363000000000     0.0370236  
H1043    H      0.990330000000     0.915870000000     0.371810000000     0.0446168  
H1044    H      0.838690000000     0.883760000000     0.277280000000     0.0592365  
H1045    H      0.973690000000     0.009330000000     0.376410000000     0.0527926  
H1046    H      0.926120000000     0.850810000000     0.293370000000     0.0378159  
H1047    H      0.869450000000     0.922790000000     0.288390000000     0.0373253  
H1048    H      0.904170000000     0.831040000000     0.253340000000     0.0466626  
H1049    H      0.011340000000     0.940790000000     0.409380000000     0.0656847  
H1050    H      0.969910000000     0.949660000000     0.315050000000     0.0509277  
H1051    H      0.949660000000     0.008000000000     0.402350000000     0.04692    
H1052    H      0.889920000000     0.885850000000     0.343500000000     0.0498033  
H1053    H      0.929450000000     0.962200000000     0.389990000000     0.0381442  
H1054    H      0.848250000000     0.901330000000     0.248980000000     0.0457386  
H1055    H      0.927360000000     0.874710000000     0.267030000000     0.0372793  
H1056    H      0.895100000000     0.915240000000     0.264080000000     0.037161   
H1057    H      0.917960000000     0.913850000000     0.373900000000     0.043425   
H1058    H      0.964530000000     0.924180000000     0.395550000000     0.0350039  
H1059    H      0.882350000000     0.828390000000     0.280570000000     0.0543043  
H1060    H      0.056280000000     0.944660000000     0.353900000000     0.177755   
H1061    H      0.885210000000     0.643430000000     0.371960000000     0.0454998  
H1062    H      0.918790000000     0.720260000000     0.294150000000     0.0359153  
H1063    H      0.837530000000     0.715890000000     0.331360000000     0.0370186  
H1064    H      0.931300000000     0.600110000000     0.413360000000     0.0439697  
H1065    H      0.891540000000     0.763080000000     0.282230000000     0.054941   
H1066    H      0.955560000000     0.688450000000     0.410650000000     0.0363274  
H1067    H      0.928620000000     0.614080000000     0.370180000000     0.0351901  
H1068    H      0.991770000000     0.657030000000     0.433720000000     0.0470032  
H1069    H      0.813000000000     0.728400000000     0.290600000000     0.0701484  
H1070    H      0.860750000000     0.669460000000     0.339390000000     0.0425226  
H1071    H      0.894640000000     0.738760000000     0.256420000000     0.0456334  
H1072    H      0.957930000000     0.702300000000     0.366620000000     0.0418072  
H1073    H      0.890860000000     0.696080000000     0.283520000000     0.0425649  
H1074    H      0.959830000000     0.582830000000     0.396110000000     0.0455274  
H1075    H      0.981050000000     0.668880000000     0.391450000000     0.0382128  
H1076    H      0.965810000000     0.625750000000     0.369560000000     0.0413709  
H1077    H      0.931700000000     0.730820000000     0.336370000000     0.0472028  
H1078    H      0.844870000000     0.692850000000     0.305160000000     0.0340812  
H1079    H      0.954410000000     0.651230000000     0.441130000000     0.0408473  
H1080    H      0.851090000000     0.799000000000     0.325790000000     0.185661   
H1081    H      0.654280000000     0.958330000000     0.325300000000     0.0468139  
H1082    H      0.680820000000     0.853000000000     0.310560000000     0.0374653  
H1083    H      0.754050000000     0.908660000000     0.314300000000     0.0378489  
H1084    H      0.590290000000     0.970990000000     0.380690000000     0.0522736  
H1085    H      0.723130000000     0.823450000000     0.301940000000     0.055087   
H1086    H      0.681540000000     0.986490000000     0.382290000000     0.0390883  
H1087    H      0.613800000000     0.925340000000     0.372910000000     0.0390127  
H1088    H      0.654110000000     0.009260000000     0.417740000000     0.0552136  
H1089    H      0.774510000000     0.884680000000     0.276250000000     0.0662324  
H1090    H      0.683850000000     0.926090000000     0.299490000000     0.0427493  
H1091    H      0.701930000000     0.827230000000     0.274300000000     0.047262   
H1092    H      0.683530000000     0.913360000000     0.390610000000     0.0443078  
H1093    H      0.688410000000     0.876750000000     0.284830000000     0.0384066  
H1094    H      0.585950000000     0.948370000000     0.407460000000     0.0563413  
H1095    H      0.672740000000     0.961770000000     0.407030000000     0.0430708  
H1096    H      0.633500000000     0.926710000000     0.401720000000     0.0416289  
H1097    H      0.713080000000     0.880950000000     0.364760000000     0.0544856  
H1098    H      0.731380000000     0.909660000000     0.287290000000     0.033271   
H1099    H      0.637680000000     0.013940000000     0.387940000000     0.0439436  
H1100    H      0.781100000000     0.839990000000     0.342080000000     0.184329   
H1101    H      0.950270000000     0.948320000000     0.102430000000     0.0453878  
H1102    H      0.911110000000     0.844620000000     0.114170000000     0.0368909  
H1103    H      0.847030000000     0.910630000000     0.113780000000     0.0370573  
H1104    H      0.011170000000     0.964850000000     0.043180000000     0.0389632  
H1105    H      0.865220000000     0.820600000000     0.121620000000     0.0535372  
H1106    H      0.920200000000     0.982340000000     0.048930000000     0.0365042  
H1107    H      0.986990000000     0.919240000000     0.050510000000     0.0356462  
H1108    H      0.944830000000     0.007510000000     0.013520000000     0.0464818  
H1109    H      0.823740000000     0.887440000000     0.151250000000     0.0683939  
H1110    H      0.918720000000     0.917200000000     0.127640000000     0.0424508  
H1111    H      0.886350000000     0.819870000000     0.149420000000     0.0477791  
H1112    H      0.914840000000     0.910420000000     0.036110000000     0.0430894  
H1113    H      0.906950000000     0.867540000000     0.140950000000     0.0382437  
H1114    H      0.012020000000     0.944260000000     0.015060000000     0.0464617  
H1115    H      0.926050000000     0.959510000000     0.022330000000     0.039975   
H1116    H      0.964780000000     0.922890000000     0.023260000000     0.0394626  
H1117    H      0.883060000000     0.879470000000     0.061330000000     0.0532171  
H1118    H      0.869760000000     0.906230000000     0.140450000000     0.0331681  
H1119    H      0.964520000000     0.008850000000     0.042080000000     0.0380783  
H1120    H      0.809030000000     0.846470000000     0.084190000000     0.179672   
H1121    H      0.636810000000     0.637260000000     0.610940000000     0.0456577  
H1122    H      0.676140000000     0.741250000000     0.617660000000     0.036825   
H1123    H      0.740630000000     0.675530000000     0.618180000000     0.0380747  
H1124    H      0.574550000000     0.618120000000     0.553730000000     0.0382212  
H1125    H      0.722530000000     0.765090000000     0.623750000000     0.051998   
H1126    H      0.664330000000     0.600260000000     0.558030000000     0.0389089  
H1127    H      0.598420000000     0.664440000000     0.559700000000     0.0360317  
H1128    H      0.638470000000     0.574110000000     0.524090000000     0.0543369  
H1129    H      0.764650000000     0.700060000000     0.654450000000     0.0696733  
H1130    H      0.669220000000     0.669450000000     0.634230000000     0.0427824  
H1131    H      0.701430000000     0.767660000000     0.651530000000     0.0480712  
H1132    H      0.670210000000     0.671720000000     0.542500000000     0.0454098  
H1133    H      0.680750000000     0.719490000000     0.645130000000     0.0388478  
H1134    H      0.571720000000     0.638990000000     0.525800000000     0.0477134  
H1135    H      0.658450000000     0.622380000000     0.530960000000     0.0467113  
H1136    H      0.619720000000     0.660110000000     0.531960000000     0.042394   
H1137    H      0.702850000000     0.703760000000     0.565800000000     0.0540428  
H1138    H      0.718450000000     0.680560000000     0.645140000000     0.0342936  
H1139    H      0.618530000000     0.575340000000     0.552570000000     0.0382049  
H1140    H      0.777380000000     0.736590000000     0.585650000000     0.178925   
H1141    H      0.640770000000     0.655930000000     0.797560000000     0.046199   
H1142    H      0.601350000000     0.680800000000     0.883850000000     0.0373034  
H1143    H      0.671350000000     0.621070000000     0.883320000000     0.038022   
H1144    H      0.669440000000     0.724200000000     0.746950000000     0.0398659  
H1145    H      0.608850000000     0.666600000000     0.926480000000     0.0534562  
H1146    H      0.715230000000     0.664450000000     0.791380000000     0.0375733  
H1147    H      0.653510000000     0.732630000000     0.789110000000     0.0365392  
H1148    H      0.745270000000     0.689280000000     0.759390000000     0.0500794  
H1149    H      0.644290000000     0.589700000000     0.913690000000     0.0712301  
H1150    H      0.621950000000     0.637230000000     0.836920000000     0.0430829  
H1151    H      0.575520000000     0.651130000000     0.915730000000     0.0473204  
H1152    H      0.697220000000     0.714140000000     0.837260000000     0.0454411  
H1153    H      0.594890000000     0.643860000000     0.874340000000     0.038377   
H1154    H      0.683070000000     0.758640000000     0.757220000000     0.0475517  
H1155    H      0.726290000000     0.700420000000     0.800560000000     0.0434137  
H1156    H      0.689920000000     0.740580000000     0.799280000000     0.0421912  
H1157    H      0.678200000000     0.695620000000     0.876660000000     0.0541983  
H1158    H      0.635960000000     0.609210000000     0.873870000000     0.0340849  
H1159    H      0.709980000000     0.678960000000     0.748490000000     0.040897   
H1160    H      0.680970000000     0.664180000000     0.943330000000     0.180202   
H1161    H      0.703940000000     0.884920000000     0.587640000000     0.0463806  
H1162    H      0.606830000000     0.919200000000     0.548840000000     0.0364095  
H1163    H      0.672840000000     0.983250000000     0.548850000000     0.0376392  
H1164    H      0.678670000000     0.868290000000     0.677920000000     0.0400372  
H1165    H      0.610060000000     0.934540000000     0.506470000000     0.055037   
H1166    H      0.727070000000     0.928160000000     0.634880000000     0.039337   
H1167    H      0.660600000000     0.864580000000     0.636060000000     0.0359579  
H1168    H      0.757100000000     0.898060000000     0.663660000000     0.0556167  
H1169    H      0.641730000000     0.013990000000     0.520400000000     0.0691882  
H1170    H      0.682580000000     0.906600000000     0.550390000000     0.0536308  
H1171    H      0.577360000000     0.949120000000     0.519310000000     0.0461259  
H1172    H      0.651110000000     0.940590000000     0.633250000000     0.0458522  
H1173    H      0.599020000000     0.955380000000     0.559630000000     0.0358636  
H1174    H      0.689790000000     0.834120000000     0.665090000000     0.0476378  
H1175    H      0.734660000000     0.892250000000     0.623330000000     0.0545414  
H1176    H      0.695900000000     0.855050000000     0.624150000000     0.0430386  
H1177    H      0.629670000000     0.962190000000     0.596000000000     0.0416556  
H1178    H      0.637070000000     0.992040000000     0.559580000000     0.0316467  
H1179    H      0.724020000000     0.911270000000     0.677060000000     0.0395977  
H1180    H      0.680770000000     0.944220000000     0.484600000000     0.179883   
H1181    H      0.947800000000     0.615570000000     0.598190000000     0.0421665  
H1182    H      0.914390000000     0.713180000000     0.630450000000     0.0372176  
H1183    H      0.848290000000     0.649920000000     0.638640000000     0.0382202  
H1184    H      0.968910000000     0.646670000000     0.509780000000     0.0422891  
H1185    H      0.900650000000     0.715080000000     0.673390000000     0.0531548  
H1186    H      0.910000000000     0.590000000000     0.548590000000     0.0366018  
H1187    H      0.967940000000     0.661210000000     0.552370000000     0.0359654  
H1188    H      0.944530000000     0.564140000000     0.519880000000     0.045152   
H1189    H      0.819750000000     0.685920000000     0.664710000000     0.0764217  
H1190    H      0.925070000000     0.637870000000     0.634610000000     0.0538927  
H1191    H      0.887670000000     0.747060000000     0.658190000000     0.0492821  
H1192    H      0.891170000000     0.664800000000     0.550590000000     0.0473281  
H1193    H      0.878000000000     0.721080000000     0.620210000000     0.0442742  
H1194    H      0.002320000000     0.635430000000     0.523780000000     0.0466893  
H1195    H      0.946000000000     0.585020000000     0.560930000000     0.0372078  
H1196    H      0.979340000000     0.625940000000     0.563040000000     0.037468   
H1197    H      0.868250000000     0.686850000000     0.586970000000     0.0461916  
H1198    H      0.840090000000     0.684190000000     0.624590000000     0.0452749  
H1199    H      0.927540000000     0.595710000000     0.507030000000     0.0434284  
H1200    H      0.839850000000     0.642880000000     0.714880000000     0.181721   
H1201    H      0.942030000000     0.921550000000     0.784670000000     0.0425172  
H1202    H      0.930770000000     0.985090000000     0.863000000000     0.0370274  
H1203    H      0.990330000000     0.915870000000     0.871810000000     0.0446253  
H1204    H      0.838690000000     0.883760000000     0.777280000000     0.0592366  
H1205    H      0.973690000000     0.009330000000     0.876410000000     0.0527855  
H1206    H      0.926120000000     0.850810000000     0.793370000000     0.0378173  
H1207    H      0.869450000000     0.922790000000     0.788390000000     0.0373255  
H1208    H      0.904170000000     0.831040000000     0.753340000000     0.0466611  
H1209    H      0.011340000000     0.940790000000     0.909380000000     0.0657051  
H1210    H      0.969910000000     0.949660000000     0.815050000000     0.0509292  
H1211    H      0.949660000000     0.008000000000     0.902350000000     0.0469303  
H1212    H      0.889920000000     0.885850000000     0.843500000000     0.0498068  
H1213    H      0.929450000000     0.962200000000     0.889990000000     0.0381629  
H1214    H      0.848250000000     0.901330000000     0.748980000000     0.0457379  
H1215    H      0.927360000000     0.874710000000     0.767030000000     0.0372776  
H1216    H      0.895100000000     0.915240000000     0.764080000000     0.0371591  
H1217    H      0.917960000000     0.913850000000     0.873900000000     0.0434869  
H1218    H      0.964530000000     0.924180000000     0.895550000000     0.0350261  
H1219    H      0.882350000000     0.828390000000     0.780570000000     0.0543045  
H1220    H      0.056280000000     0.944660000000     0.853900000000     0.177753   
H1221    H      0.885210000000     0.643430000000     0.871960000000     0.0455124  
H1222    H      0.918790000000     0.720260000000     0.794150000000     0.0359133  
H1223    H      0.837530000000     0.715890000000     0.831360000000     0.0370252  
H1224    H      0.931300000000     0.600110000000     0.913360000000     0.043998   
H1225    H      0.891540000000     0.763080000000     0.782230000000     0.054941   
H1226    H      0.955560000000     0.688450000000     0.910650000000     0.0363535  
H1227    H      0.928620000000     0.614080000000     0.870180000000     0.0351916  
H1228    H      0.991770000000     0.657030000000     0.933720000000     0.0470289  
H1229    H      0.813000000000     0.728400000000     0.790610000000     0.0701424  
H1230    H      0.860750000000     0.669460000000     0.839390000000     0.0425264  
H1231    H      0.894640000000     0.738760000000     0.756420000000     0.0456315  
H1232    H      0.957930000000     0.702300000000     0.866620000000     0.0418135  
H1233    H      0.890860000000     0.696080000000     0.783520000000     0.0425624  
H1234    H      0.959830000000     0.582830000000     0.896110000000     0.0455209  
H1235    H      0.981050000000     0.668880000000     0.891450000000     0.0382154  
H1236    H      0.965810000000     0.625750000000     0.869560000000     0.0413648  
H1237    H      0.931700000000     0.730820000000     0.836370000000     0.0472063  
H1238    H      0.844870000000     0.692850000000     0.805160000000     0.0340816  
H1239    H      0.954410000000     0.651230000000     0.941130000000     0.0409004  
H1240    H      0.851090000000     0.799000000000     0.825790000000     0.185668   
H1241    H      0.654280000000     0.958330000000     0.825300000000     0.0468112  
H1242    H      0.680820000000     0.853000000000     0.810560000000     0.0374559  
H1243    H      0.754050000000     0.908660000000     0.814300000000     0.0378519  
H1244    H      0.590290000000     0.970990000000     0.880690000000     0.0522709  
H1245    H      0.723130000000     0.823450000000     0.801940000000     0.0550957  
H1246    H      0.681540000000     0.986490000000     0.882290000000     0.0390954  
H1247    H      0.613800000000     0.925340000000     0.872910000000     0.0390186  
H1248    H      0.654110000000     0.009260000000     0.917740000000     0.055225   
H1249    H      0.774510000000     0.884680000000     0.776250000000     0.0662318  
H1250    H      0.683850000000     0.926090000000     0.799490000000     0.0427473  
H1251    H      0.701930000000     0.827230000000     0.774300000000     0.0472669  
H1252    H      0.683530000000     0.913360000000     0.890610000000     0.0443253  
H1253    H      0.688410000000     0.876750000000     0.784830000000     0.0383827  
H1254    H      0.585950000000     0.948370000000     0.907460000000     0.0563553  
H1255    H      0.672740000000     0.961770000000     0.907030000000     0.0430876  
H1256    H      0.633500000000     0.926710000000     0.901720000000     0.0416479  
H1257    H      0.713080000000     0.880950000000     0.864760000000     0.0544991  
H1258    H      0.731380000000     0.909660000000     0.787290000000     0.033269   
H1259    H      0.637680000000     0.013940000000     0.887940000000     0.0439421  
H1260    H      0.781100000000     0.839990000000     0.842080000000     0.184341   
H1261    H      0.950270000000     0.948320000000     0.602430000000     0.0453865  
H1262    H      0.911110000000     0.844620000000     0.614170000000     0.0368977  
H1263    H      0.847030000000     0.910630000000     0.613780000000     0.0370615  
H1264    H      0.011170000000     0.964850000000     0.543180000000     0.03899    
H1265    H      0.865220000000     0.820600000000     0.621620000000     0.0535438  
H1266    H      0.920200000000     0.982340000000     0.548930000000     0.0365198  
H1267    H      0.986990000000     0.919240000000     0.550510000000     0.0356612  
H1268    H      0.944830000000     0.007510000000     0.513520000000     0.0465614  
H1269    H      0.823740000000     0.887440000000     0.651250000000     0.0683914  
H1270    H      0.918720000000     0.917200000000     0.627640000000     0.0424531  
H1271    H      0.886350000000     0.819870000000     0.649420000000     0.0477811  
H1272    H      0.914840000000     0.910420000000     0.536110000000     0.0431271  
H1273    H      0.906950000000     0.867540000000     0.640950000000     0.0382424  
H1274    H      0.012020000000     0.944260000000     0.515060000000     0.0465393  
H1275    H      0.926050000000     0.959510000000     0.522330000000     0.0400186  
H1276    H      0.964780000000     0.922890000000     0.523260000000     0.0395056  
H1277    H      0.883060000000     0.879470000000     0.561330000000     0.0532346  
H1278    H      0.869760000000     0.906230000000     0.640450000000     0.0331646  
H1279    H      0.964520000000     0.008850000000     0.542080000000     0.038106   
H1280    H      0.809030000000     0.846470000000     0.584190000000     0.179707   
N1       N      0.237850000000     0.238150000000     0.152650000000    -0.151933   
N2       N      0.208110000000     0.208140000000     0.114630000000    -0.107753   
N3       N      0.131740000000     0.132620000000     0.062170000000    -0.11346    
N4       N      0.101230000000     0.102610000000     0.024810000000    -0.16242    
N5       N      0.111030000000     0.121200000000     0.420890000000    -0.152467   
N6       N      0.138950000000     0.154050000000     0.383400000000    -0.107744   
N7       N      0.181510000000     0.195990000000     0.290810000000    -0.113185   
N8       N      0.214570000000     0.224150000000     0.253820000000    -0.162954   
N9       N      0.111610000000     0.479900000000     0.012440000000    -0.15177    
N10      N      0.142810000000     0.448090000000     0.048070000000    -0.10863    
N11      N      0.191070000000     0.399250000000     0.135580000000    -0.112996   
N12      N      0.223440000000     0.366250000000     0.169650000000    -0.161843   
N13      N      0.355100000000     0.215660000000     0.168520000000    -0.14852    
N14      N      0.384320000000     0.178570000000     0.135250000000    -0.108774   
N15      N      0.435660000000     0.128330000000     0.049770000000    -0.11298    
N16      N      0.472100000000     0.101330000000     0.014960000000    -0.162932   
N17      N      0.487120000000     0.480090000000     0.404350000000    -0.150924   
N18      N      0.462330000000     0.451430000000     0.363630000000    -0.112837   
N19      N      0.396070000000     0.385800000000     0.294690000000    -0.111019   
N20      N      0.367520000000     0.359600000000     0.254820000000    -0.16068    
N21      N      0.352470000000     0.241490000000     0.273000000000    -0.152893   
N22      N      0.380070000000     0.220170000000     0.316080000000    -0.107689   
N23      N      0.437510000000     0.152730000000     0.390880000000    -0.112022   
N24      N      0.473060000000     0.117130000000     0.420520000000    -0.16397    
N25      N      0.242260000000     0.351050000000     0.275220000000    -0.152944   
N26      N      0.217230000000     0.380750000000     0.315710000000    -0.107305   
N27      N      0.147710000000     0.456640000000     0.374000000000    -0.113273   
N28      N      0.115280000000     0.484570000000     0.411140000000    -0.161182   
N29      N      0.349460000000     0.348720000000     0.149510000000    -0.15136    
N30      N      0.379100000000     0.377560000000     0.110460000000    -0.107807   
N31      N      0.453610000000     0.450910000000     0.053330000000    -0.113299   
N32      N      0.483390000000     0.481180000000     0.015360000000    -0.162067   
N33      N      0.237850000000     0.238150000000     0.652650000000    -0.151929   
N34      N      0.208110000000     0.208140000000     0.614630000000    -0.107745   
N35      N      0.131740000000     0.132620000000     0.562170000000    -0.113455   
N36      N      0.101230000000     0.102610000000     0.524810000000    -0.162499   
N37      N      0.111030000000     0.121200000000     0.920890000000    -0.152463   
N38      N      0.138950000000     0.154050000000     0.883400000000    -0.107741   
N39      N      0.181510000000     0.195990000000     0.790810000000    -0.113192   
N40      N      0.214570000000     0.224150000000     0.753820000000    -0.162952   
N41      N      0.111610000000     0.479900000000     0.512440000000    -0.151576   
N42      N      0.142810000000     0.448090000000     0.548070000000    -0.108625   
N43      N      0.191070000000     0.399250000000     0.635590000000    -0.112962   
N44      N      0.223440000000     0.366250000000     0.669650000000    -0.161845   
N45      N      0.355100000000     0.215660000000     0.668520000000    -0.148521   
N46      N      0.384320000000     0.178570000000     0.635250000000    -0.108773   
N47      N      0.435660000000     0.128330000000     0.549770000000    -0.112969   
N48      N      0.472100000000     0.101330000000     0.514960000000    -0.162767   
N49      N      0.487120000000     0.480090000000     0.904350000000    -0.150915   
N50      N      0.462330000000     0.451430000000     0.863630000000    -0.112842   
N51      N      0.396070000000     0.385800000000     0.794690000000    -0.111016   
N52      N      0.367520000000     0.359600000000     0.754820000000    -0.160681   
N53      N      0.352470000000     0.241490000000     0.773000000000    -0.15289    
N54      N      0.380070000000     0.220170000000     0.816080000000    -0.107687   
N55      N      0.437510000000     0.152730000000     0.890880000000    -0.112015   
N56      N      0.473060000000     0.117130000000     0.920520000000    -0.164004   
N57      N      0.242260000000     0.351050000000     0.775220000000    -0.152942   
N58      N      0.217230000000     0.380750000000     0.815710000000    -0.10731    
N59      N      0.147710000000     0.456640000000     0.874000000000    -0.113273   
N60      N      0.115280000000     0.484570000000     0.911140000000    -0.161178   
N61      N      0.349460000000     0.348720000000     0.649510000000    -0.151349   
N62      N      0.379100000000     0.377560000000     0.610460000000    -0.107815   
N63      N      0.453610000000     0.450910000000     0.553330000000    -0.113299   
N64      N      0.483390000000     0.481180000000     0.515360000000    -0.161899   
N65      N      0.237850000000     0.738150000000     0.152650000000    -0.151933   
N66      N      0.208110000000     0.708140000000     0.114630000000    -0.107752   
N67      N      0.131740000000     0.632620000000     0.062170000000    -0.113452   
N68      N      0.101230000000     0.602600000000     0.024810000000    -0.162446   
N69      N      0.111030000000     0.621200000000     0.420890000000    -0.152465   
N70      N      0.138950000000     0.654050000000     0.383400000000    -0.107736   
N71      N      0.181510000000     0.695990000000     0.290810000000    -0.113187   
N72      N      0.214570000000     0.724160000000     0.253820000000    -0.162996   
N73      N      0.111610000000     0.979900000000     0.012440000000    -0.151873   
N74      N      0.142810000000     0.948090000000     0.048070000000    -0.108607   
N75      N      0.191070000000     0.899250000000     0.135580000000    -0.11299    
N76      N      0.223440000000     0.866250000000     0.169650000000    -0.161839   
N77      N      0.355100000000     0.715660000000     0.168520000000    -0.148557   
N78      N      0.384320000000     0.678570000000     0.135250000000    -0.108769   
N79      N      0.435660000000     0.628330000000     0.049770000000    -0.112974   
N80      N      0.472100000000     0.601330000000     0.014960000000    -0.162929   
N81      N      0.487120000000     0.980090000000     0.404350000000    -0.151099   
N82      N      0.462330000000     0.951430000000     0.363630000000    -0.112779   
N83      N      0.396070000000     0.885800000000     0.294690000000    -0.111015   
N84      N      0.367520000000     0.859590000000     0.254820000000    -0.160718   
N85      N      0.352470000000     0.741490000000     0.273000000000    -0.152871   
N86      N      0.380070000000     0.720170000000     0.316080000000    -0.107689   
N87      N      0.437510000000     0.652730000000     0.390880000000    -0.112019   
N88      N      0.473060000000     0.617120000000     0.420520000000    -0.164016   
N89      N      0.242260000000     0.851050000000     0.275220000000    -0.152954   
N90      N      0.217230000000     0.880750000000     0.315710000000    -0.107296   
N91      N      0.147710000000     0.956640000000     0.374000000000    -0.113211   
N92      N      0.115280000000     0.984570000000     0.411140000000    -0.161321   
N93      N      0.349460000000     0.848720000000     0.149510000000    -0.151362   
N94      N      0.379100000000     0.877560000000     0.110460000000    -0.107801   
N95      N      0.453610000000     0.950910000000     0.053330000000    -0.113234   
N96      N      0.483390000000     0.981180000000     0.015360000000    -0.162225   
N97      N      0.237850000000     0.738150000000     0.652650000000    -0.151929   
N98      N      0.208110000000     0.708140000000     0.614630000000    -0.107744   
N99      N      0.131740000000     0.632620000000     0.562170000000    -0.113447   
N100     N      0.101230000000     0.602600000000     0.524810000000    -0.162525   
N101     N      0.111030000000     0.621200000000     0.920890000000    -0.152461   
N102     N      0.138950000000     0.654050000000     0.883400000000    -0.107734   
N103     N      0.181510000000     0.695990000000     0.790810000000    -0.113194   
N104     N      0.214570000000     0.724160000000     0.753820000000    -0.162994   
N105     N      0.111610000000     0.979900000000     0.512440000000    -0.15168    
N106     N      0.142810000000     0.948090000000     0.548070000000    -0.108602   
N107     N      0.191070000000     0.899250000000     0.635590000000    -0.112957   
N108     N      0.223440000000     0.866250000000     0.669650000000    -0.161842   
N109     N      0.355100000000     0.715660000000     0.668520000000    -0.148558   
N110     N      0.384320000000     0.678570000000     0.635250000000    -0.108769   
N111     N      0.435660000000     0.628330000000     0.549770000000    -0.112963   
N112     N      0.472100000000     0.601330000000     0.514960000000    -0.162763   
N113     N      0.487120000000     0.980090000000     0.904350000000    -0.15109    
N114     N      0.462330000000     0.951430000000     0.863630000000    -0.112784   
N115     N      0.396070000000     0.885800000000     0.794690000000    -0.111012   
N116     N      0.367520000000     0.859590000000     0.754820000000    -0.160719   
N117     N      0.352470000000     0.741490000000     0.773000000000    -0.152868   
N118     N      0.380070000000     0.720170000000     0.816080000000    -0.107688   
N119     N      0.437510000000     0.652730000000     0.890880000000    -0.112013   
N120     N      0.473060000000     0.617120000000     0.920520000000    -0.164049   
N121     N      0.242260000000     0.851050000000     0.775220000000    -0.152952   
N122     N      0.217230000000     0.880750000000     0.815710000000    -0.107301   
N123     N      0.147710000000     0.956640000000     0.874000000000    -0.11321    
N124     N      0.115280000000     0.984570000000     0.911140000000    -0.161317   
N125     N      0.349460000000     0.848720000000     0.649510000000    -0.151351   
N126     N      0.379100000000     0.877560000000     0.610460000000    -0.107809   
N127     N      0.453610000000     0.950910000000     0.553330000000    -0.113234   
N128     N      0.483390000000     0.981180000000     0.515360000000    -0.162057   
N129     N      0.737850000000     0.238150000000     0.152650000000    -0.151942   
N130     N      0.708110000000     0.208140000000     0.114630000000    -0.107751   
N131     N      0.631740000000     0.132620000000     0.062170000000    -0.11346    
N132     N      0.601230000000     0.102610000000     0.024810000000    -0.16242    
N133     N      0.611030000000     0.121200000000     0.420890000000    -0.152491   
N134     N      0.638950000000     0.154050000000     0.383400000000    -0.107757   
N135     N      0.681500000000     0.195990000000     0.290810000000    -0.113196   
N136     N      0.714570000000     0.224150000000     0.253820000000    -0.162952   
N137     N      0.611610000000     0.479900000000     0.012440000000    -0.151768   
N138     N      0.642810000000     0.448090000000     0.048070000000    -0.10863    
N139     N      0.691070000000     0.399250000000     0.135580000000    -0.113011   
N140     N      0.723440000000     0.366250000000     0.169650000000    -0.16183    
N141     N      0.855100000000     0.215660000000     0.168520000000    -0.148519   
N142     N      0.884310000000     0.178570000000     0.135250000000    -0.108773   
N143     N      0.935660000000     0.128330000000     0.049770000000    -0.112973   
N144     N      0.972100000000     0.101330000000     0.014960000000    -0.162962   
N145     N      0.987130000000     0.480090000000     0.404350000000    -0.150927   
N146     N      0.962330000000     0.451430000000     0.363630000000    -0.112833   
N147     N      0.896070000000     0.385800000000     0.294690000000    -0.111016   
N148     N      0.867520000000     0.359600000000     0.254820000000    -0.16068    
N149     N      0.852470000000     0.241490000000     0.273000000000    -0.152874   
N150     N      0.880070000000     0.220170000000     0.316080000000    -0.107681   
N151     N      0.937510000000     0.152730000000     0.390880000000    -0.112021   
N152     N      0.973060000000     0.117130000000     0.420520000000    -0.163975   
N153     N      0.742260000000     0.351050000000     0.275220000000    -0.152943   
N154     N      0.717230000000     0.380750000000     0.315710000000    -0.107308   
N155     N      0.647710000000     0.456640000000     0.374000000000    -0.113273   
N156     N      0.615280000000     0.484570000000     0.411140000000    -0.161182   
N157     N      0.849460000000     0.348720000000     0.149510000000    -0.151361   
N158     N      0.879100000000     0.377560000000     0.110460000000    -0.107803   
N159     N      0.953610000000     0.450910000000     0.053330000000    -0.113286   
N160     N      0.983390000000     0.481180000000     0.015360000000    -0.162085   
N161     N      0.737850000000     0.238150000000     0.652650000000    -0.151937   
N162     N      0.708110000000     0.208140000000     0.614630000000    -0.107743   
N163     N      0.631740000000     0.132620000000     0.562170000000    -0.113455   
N164     N      0.601230000000     0.102610000000     0.524810000000    -0.162499   
N165     N      0.611030000000     0.121200000000     0.920890000000    -0.152486   
N166     N      0.638950000000     0.154050000000     0.883400000000    -0.107755   
N167     N      0.681500000000     0.195990000000     0.790810000000    -0.113203   
N168     N      0.714570000000     0.224150000000     0.753820000000    -0.162951   
N169     N      0.611610000000     0.479900000000     0.512440000000    -0.151574   
N170     N      0.642810000000     0.448090000000     0.548070000000    -0.108626   
N171     N      0.691070000000     0.399250000000     0.635590000000    -0.112978   
N172     N      0.723440000000     0.366250000000     0.669650000000    -0.161832   
N173     N      0.855100000000     0.215660000000     0.668520000000    -0.14852    
N174     N      0.884310000000     0.178570000000     0.635250000000    -0.108773   
N175     N      0.935660000000     0.128330000000     0.549770000000    -0.112962   
N176     N      0.972100000000     0.101330000000     0.514960000000    -0.162797   
N177     N      0.987130000000     0.480090000000     0.904350000000    -0.150919   
N178     N      0.962330000000     0.451430000000     0.863630000000    -0.112837   
N179     N      0.896070000000     0.385800000000     0.794690000000    -0.111013   
N180     N      0.867520000000     0.359600000000     0.754820000000    -0.160681   
N181     N      0.852470000000     0.241490000000     0.773000000000    -0.152871   
N182     N      0.880070000000     0.220170000000     0.816080000000    -0.10768    
N183     N      0.937510000000     0.152730000000     0.890880000000    -0.112014   
N184     N      0.973060000000     0.117130000000     0.920520000000    -0.164008   
N185     N      0.742260000000     0.351050000000     0.775220000000    -0.152941   
N186     N      0.717230000000     0.380750000000     0.815710000000    -0.107313   
N187     N      0.647710000000     0.456640000000     0.874000000000    -0.113273   
N188     N      0.615280000000     0.484570000000     0.911140000000    -0.161178   
N189     N      0.849460000000     0.348720000000     0.649510000000    -0.15135    
N190     N      0.879100000000     0.377560000000     0.610460000000    -0.10781    
N191     N      0.953610000000     0.450910000000     0.553330000000    -0.113286   
N192     N      0.983390000000     0.481180000000     0.515360000000    -0.161917   
N193     N      0.737850000000     0.738150000000     0.152650000000    -0.151942   
N194     N      0.708110000000     0.708140000000     0.114630000000    -0.10775    
N195     N      0.631740000000     0.632620000000     0.062170000000    -0.113452   
N196     N      0.601230000000     0.602600000000     0.024810000000    -0.162446   
N197     N      0.611030000000     0.621200000000     0.420890000000    -0.152489   
N198     N      0.638950000000     0.654050000000     0.383400000000    -0.10775    
N199     N      0.681500000000     0.695990000000     0.290810000000    -0.113198   
N200     N      0.714570000000     0.724160000000     0.253820000000    -0.162994   
N201     N      0.611610000000     0.979900000000     0.012440000000    -0.15187    
N202     N      0.642810000000     0.948090000000     0.048070000000    -0.108607   
N203     N      0.691070000000     0.899250000000     0.135580000000    -0.113006   
N204     N      0.723440000000     0.866250000000     0.169650000000    -0.161826   
N205     N      0.855100000000     0.715660000000     0.168520000000    -0.148555   
N206     N      0.884310000000     0.678570000000     0.135250000000    -0.108769   
N207     N      0.935660000000     0.628330000000     0.049770000000    -0.112967   
N208     N      0.972100000000     0.601330000000     0.014960000000    -0.162957   
N209     N      0.987130000000     0.980090000000     0.404350000000    -0.151102   
N210     N      0.962330000000     0.951430000000     0.363630000000    -0.112775   
N211     N      0.896070000000     0.885800000000     0.294690000000    -0.111012   
N212     N      0.867520000000     0.859590000000     0.254820000000    -0.160718   
N213     N      0.852470000000     0.741490000000     0.273000000000    -0.152853   
N214     N      0.880070000000     0.720170000000     0.316080000000    -0.107682   
N215     N      0.937510000000     0.652730000000     0.390880000000    -0.112018   
N216     N      0.973060000000     0.617120000000     0.420520000000    -0.16402    
N217     N      0.742260000000     0.851050000000     0.275220000000    -0.152952   
N218     N      0.717230000000     0.880750000000     0.315710000000    -0.107299   
N219     N      0.647710000000     0.956640000000     0.374000000000    -0.113211   
N220     N      0.615280000000     0.984570000000     0.411140000000    -0.16132    
N221     N      0.849460000000     0.848720000000     0.149510000000    -0.151362   
N222     N      0.879100000000     0.877560000000     0.110460000000    -0.107797   
N223     N      0.953610000000     0.950910000000     0.053330000000    -0.113223   
N224     N      0.983390000000     0.981180000000     0.015360000000    -0.162238   
N225     N      0.737850000000     0.738150000000     0.652650000000    -0.151938   
N226     N      0.708110000000     0.708140000000     0.614630000000    -0.107742   
N227     N      0.631740000000     0.632620000000     0.562170000000    -0.113447   
N228     N      0.601230000000     0.602600000000     0.524810000000    -0.162525   
N229     N      0.611030000000     0.621200000000     0.920890000000    -0.152484   
N230     N      0.638950000000     0.654050000000     0.883400000000    -0.107747   
N231     N      0.681500000000     0.695990000000     0.790810000000    -0.113205   
N232     N      0.714570000000     0.724160000000     0.753820000000    -0.162993   
N233     N      0.611610000000     0.979900000000     0.512440000000    -0.151677   
N234     N      0.642810000000     0.948090000000     0.548070000000    -0.108603   
N235     N      0.691070000000     0.899250000000     0.635590000000    -0.112972   
N236     N      0.723440000000     0.866250000000     0.669650000000    -0.161828   
N237     N      0.855100000000     0.715660000000     0.668520000000    -0.148556   
N238     N      0.884310000000     0.678570000000     0.635250000000    -0.108768   
N239     N      0.935660000000     0.628330000000     0.549770000000    -0.112956   
N240     N      0.972100000000     0.601330000000     0.514960000000    -0.162792   
N241     N      0.987130000000     0.980090000000     0.904350000000    -0.151093   
N242     N      0.962330000000     0.951430000000     0.863630000000    -0.11278    
N243     N      0.896070000000     0.885800000000     0.794690000000    -0.111009   
N244     N      0.867520000000     0.859590000000     0.754820000000    -0.160719   
N245     N      0.852470000000     0.741490000000     0.773000000000    -0.152849   
N246     N      0.880070000000     0.720170000000     0.816080000000    -0.10768    
N247     N      0.937510000000     0.652730000000     0.890880000000    -0.112012   
N248     N      0.973060000000     0.617120000000     0.920520000000    -0.164054   
N249     N      0.742260000000     0.851050000000     0.775220000000    -0.15295    
N250     N      0.717230000000     0.880750000000     0.815710000000    -0.107304   
N251     N      0.647710000000     0.956640000000     0.874000000000    -0.11321    
N252     N      0.615280000000     0.984570000000     0.911140000000    -0.161316   
N253     N      0.849460000000     0.848720000000     0.649510000000    -0.151351   
N254     N      0.879100000000     0.877560000000     0.610460000000    -0.107804   
N255     N      0.953610000000     0.950910000000     0.553330000000    -0.113223   
N256     N      0.983390000000     0.981180000000     0.515360000000    -0.162071   
O1       O      0.522020000000     0.483920000000     0.434310000000    -0.359332   
O2       O      0.070210000000     0.110620000000     0.443450000000    -0.366893   
O3       O      0.484380000000     0.072490000000     0.435930000000    -0.36422    
O4       O      0.108520000000     0.521810000000     0.438470000000    -0.359054   
O5       O      0.511530000000     0.110380000000     0.446620000000    -0.35951    
O6       O      0.074950000000     0.487270000000     0.435690000000    -0.357027   
O7       O      0.106290000000     0.078640000000     0.442290000000    -0.359958   
O8       O      0.487950000000     0.517920000000     0.431720000000    -0.366448   
O9       O      0.072050000000     0.485500000000     0.987350000000    -0.367063   
O10      O      0.513240000000     0.101010000000     0.991340000000    -0.361929   
O11      O      0.485600000000     0.517910000000     0.986840000000    -0.365185   
O12      O      0.101130000000     0.068990000000     0.993700000000    -0.365264   
O13      O      0.065730000000     0.101700000000     0.995200000000    -0.370887   
O14      O      0.521530000000     0.485780000000     0.988330000000    -0.367747   
O15      O      0.105880000000     0.519940000000     0.987990000000    -0.357553   
O16      O      0.481470000000     0.064950000000     0.987310000000    -0.361761   
O17      O      0.545330000000     0.546420000000     0.451910000000    -0.585665   
O18      O      0.315800000000     0.349040000000     0.180760000000    -0.366412   
O19      O      0.270050000000     0.237290000000     0.184870000000    -0.363722   
O20      O      0.350790000000     0.259930000000     0.187250000000    -0.368361   
O21      O      0.230560000000     0.324300000000     0.191360000000    -0.370494   
O22      O      0.316500000000     0.226700000000     0.193450000000    -0.355618   
O23      O      0.265870000000     0.357210000000     0.190140000000    -0.368408   
O24      O      0.237830000000     0.273130000000     0.182740000000    -0.373728   
O25      O      0.348350000000     0.313420000000     0.179430000000    -0.37328    
O26      O      0.274850000000     0.349940000000     0.243310000000    -0.358529   
O27      O      0.312740000000     0.244280000000     0.247900000000    -0.36448    
O28      O      0.357690000000     0.319160000000     0.231720000000    -0.361696   
O29      O      0.226070000000     0.265900000000     0.232940000000    -0.361378   
O30      O      0.258620000000     0.230350000000     0.234950000000    -0.363531   
O31      O      0.326420000000     0.355960000000     0.231490000000    -0.362207   
O32      O      0.238470000000     0.318230000000     0.243660000000    -0.364822   
O33      O      0.353610000000     0.265880000000     0.236280000000    -0.35846    
O34      O      0.293430000000     0.293980000000     0.222970000000    -0.578473   
O35      O      0.264210000000     0.229300000000     0.098120000000    -0.338583   
O36      O      0.298410000000     0.228420000000     0.127180000000    -0.249903   
O37      O      0.167780000000     0.155420000000     0.431600000000    -0.337293   
O38      O      0.173590000000     0.111210000000     0.447450000000    -0.239187   
O39      O      0.166990000000     0.451140000000     0.996740000000    -0.335835   
O40      O      0.176610000000     0.497560000000     0.988750000000    -0.239592   
O41      O      0.334110000000     0.155210000000     0.201250000000    -0.338548   
O42      O      0.379600000000     0.161200000000     0.188330000000    -0.244538   
O43      O      0.541300000000     0.440410000000     0.365900000000    -0.350175   
O44      O      0.529950000000     0.486980000000     0.370990000000    -0.243379   
O45      O      0.353390000000     0.280400000000     0.317720000000    -0.33567    
O46      O      0.306090000000     0.276170000000     0.310120000000    -0.238186   
O47      O      0.269360000000     0.350600000000     0.330320000000    -0.335907   
O48      O      0.302970000000     0.347920000000     0.300860000000    -0.238195   
O49      O      0.322660000000     0.353660000000     0.096330000000    -0.338113   
O50      O      0.288010000000     0.362890000000     0.123930000000    -0.250558   
O51      O      0.522020000000     0.483920000000     0.934310000000    -0.359302   
O52      O      0.070210000000     0.110620000000     0.943450000000    -0.366879   
O53      O      0.484380000000     0.072490000000     0.935930000000    -0.364189   
O54      O      0.108520000000     0.521810000000     0.938470000000    -0.359045   
O55      O      0.511530000000     0.110380000000     0.946620000000    -0.3594     
O56      O      0.074950000000     0.487270000000     0.935690000000    -0.357011   
O57      O      0.106290000000     0.078640000000     0.942290000000    -0.359945   
O58      O      0.487950000000     0.517920000000     0.931730000000    -0.36647    
O59      O      0.072050000000     0.485500000000     0.487350000000    -0.367105   
O60      O      0.513240000000     0.101010000000     0.491340000000    -0.361957   
O61      O      0.485600000000     0.517910000000     0.486840000000    -0.36519    
O62      O      0.101130000000     0.068990000000     0.493700000000    -0.365653   
O63      O      0.065730000000     0.101700000000     0.495200000000    -0.371282   
O64      O      0.521530000000     0.485780000000     0.488320000000    -0.367798   
O65      O      0.105880000000     0.519940000000     0.487990000000    -0.357567   
O66      O      0.481470000000     0.064950000000     0.487310000000    -0.361787   
O67      O      0.545330000000     0.546420000000     0.951910000000    -0.585672   
O68      O      0.315800000000     0.349040000000     0.680770000000    -0.366427   
O69      O      0.270050000000     0.237290000000     0.684870000000    -0.363725   
O70      O      0.350790000000     0.259930000000     0.687250000000    -0.368363   
O71      O      0.230560000000     0.324300000000     0.691360000000    -0.370497   
O72      O      0.316500000000     0.226700000000     0.693450000000    -0.35562    
O73      O      0.265870000000     0.357210000000     0.690140000000    -0.368419   
O74      O      0.237830000000     0.273130000000     0.682740000000    -0.373729   
O75      O      0.348350000000     0.313420000000     0.679430000000    -0.373249   
O76      O      0.274850000000     0.349940000000     0.743310000000    -0.358541   
O77      O      0.312740000000     0.244280000000     0.747900000000    -0.364476   
O78      O      0.357690000000     0.319160000000     0.731720000000    -0.361696   
O79      O      0.226070000000     0.265900000000     0.732940000000    -0.361378   
O80      O      0.258620000000     0.230350000000     0.734950000000    -0.363532   
O81      O      0.326420000000     0.355960000000     0.731490000000    -0.362206   
O82      O      0.238470000000     0.318230000000     0.743660000000    -0.364824   
O83      O      0.353610000000     0.265880000000     0.736280000000    -0.358461   
O84      O      0.293430000000     0.293980000000     0.722970000000    -0.578481   
O85      O      0.264210000000     0.229300000000     0.598120000000    -0.338427   
O86      O      0.298410000000     0.228420000000     0.627180000000    -0.249882   
O87      O      0.167780000000     0.155420000000     0.931600000000    -0.337276   
O88      O      0.173590000000     0.111210000000     0.947450000000    -0.239121   
O89      O      0.166990000000     0.451140000000     0.496740000000    -0.336288   
O90      O      0.176610000000     0.497560000000     0.488750000000    -0.24003    
O91      O      0.334110000000     0.155210000000     0.701250000000    -0.338549   
O92      O      0.379600000000     0.161200000000     0.688330000000    -0.244541   
O93      O      0.541300000000     0.440410000000     0.865900000000    -0.35017    
O94      O      0.529950000000     0.486980000000     0.870990000000    -0.243387   
O95      O      0.353390000000     0.280400000000     0.817720000000    -0.335667   
O96      O      0.306090000000     0.276170000000     0.810120000000    -0.238182   
O97      O      0.269360000000     0.350600000000     0.830320000000    -0.335904   
O98      O      0.302970000000     0.347920000000     0.800860000000    -0.238193   
O99      O      0.322660000000     0.353660000000     0.596330000000    -0.338117   
O100     O      0.288010000000     0.362890000000     0.623920000000    -0.250602   
O101     O      0.522020000000     0.983920000000     0.434310000000    -0.3592     
O102     O      0.070210000000     0.610620000000     0.443450000000    -0.366893   
O103     O      0.484380000000     0.572490000000     0.435930000000    -0.364216   
O104     O      0.108520000000     0.021810000000     0.438470000000    -0.359455   
O105     O      0.511530000000     0.610380000000     0.446620000000    -0.359534   
O106     O      0.074950000000     0.987260000000     0.435690000000    -0.356777   
O107     O      0.106290000000     0.578640000000     0.442290000000    -0.35994    
O108     O      0.487950000000     0.017920000000     0.431720000000    -0.366869   
O109     O      0.072050000000     0.985500000000     0.987350000000    -0.366917   
O110     O      0.513240000000     0.601010000000     0.991340000000    -0.361928   
O111     O      0.485600000000     0.017910000000     0.986840000000    -0.365601   
O112     O      0.101130000000     0.568990000000     0.993700000000    -0.365255   
O113     O      0.065730000000     0.601700000000     0.995200000000    -0.370901   
O114     O      0.521530000000     0.985780000000     0.988330000000    -0.367602   
O115     O      0.105880000000     0.019940000000     0.987990000000    -0.357984   
O116     O      0.481470000000     0.564950000000     0.987310000000    -0.36175    
O117     O      0.545330000000     0.046420000000     0.451910000000    -0.585654   
O118     O      0.315800000000     0.849040000000     0.180760000000    -0.36641    
O119     O      0.270050000000     0.737290000000     0.184870000000    -0.36372    
O120     O      0.350790000000     0.759920000000     0.187250000000    -0.368473   
O121     O      0.230560000000     0.824300000000     0.191360000000    -0.370493   
O122     O      0.316500000000     0.726700000000     0.193450000000    -0.355674   
O123     O      0.265870000000     0.857210000000     0.190140000000    -0.368404   
O124     O      0.237830000000     0.773130000000     0.182740000000    -0.373729   
O125     O      0.348350000000     0.813420000000     0.179430000000    -0.373292   
O126     O      0.274850000000     0.849940000000     0.243310000000    -0.358524   
O127     O      0.312740000000     0.744280000000     0.247900000000    -0.364444   
O128     O      0.357690000000     0.819160000000     0.231720000000    -0.361692   
O129     O      0.226070000000     0.765900000000     0.232940000000    -0.361392   
O130     O      0.258620000000     0.730350000000     0.234950000000    -0.363548   
O131     O      0.326420000000     0.855960000000     0.231490000000    -0.362215   
O132     O      0.238470000000     0.818230000000     0.243660000000    -0.364822   
O133     O      0.353610000000     0.765890000000     0.236280000000    -0.358397   
O134     O      0.293430000000     0.793980000000     0.222970000000    -0.578474   
O135     O      0.264210000000     0.729300000000     0.098120000000    -0.338582   
O136     O      0.298410000000     0.728420000000     0.127180000000    -0.249906   
O137     O      0.167780000000     0.655420000000     0.431600000000    -0.337288   
O138     O      0.173590000000     0.611210000000     0.447450000000    -0.239141   
O139     O      0.166990000000     0.951140000000     0.996740000000    -0.335784   
O140     O      0.176610000000     0.997560000000     0.988750000000    -0.239326   
O141     O      0.334110000000     0.655220000000     0.201250000000    -0.338447   
O142     O      0.379600000000     0.661200000000     0.188330000000    -0.244516   
O143     O      0.541300000000     0.940410000000     0.365900000000    -0.350097   
O144     O      0.529950000000     0.986990000000     0.370990000000    -0.243067   
O145     O      0.353390000000     0.780410000000     0.317720000000    -0.335772   
O146     O      0.306090000000     0.776180000000     0.310120000000    -0.238108   
O147     O      0.269360000000     0.850600000000     0.330320000000    -0.33596    
O148     O      0.302970000000     0.847920000000     0.300860000000    -0.238259   
O149     O      0.322660000000     0.853660000000     0.096330000000    -0.338111   
O150     O      0.288010000000     0.862890000000     0.123930000000    -0.250555   
O151     O      0.522020000000     0.983920000000     0.934310000000    -0.359169   
O152     O      0.070210000000     0.610620000000     0.943450000000    -0.366878   
O153     O      0.484380000000     0.572490000000     0.935930000000    -0.364186   
O154     O      0.108520000000     0.021810000000     0.938470000000    -0.359446   
O155     O      0.511530000000     0.610380000000     0.946620000000    -0.359424   
O156     O      0.074950000000     0.987260000000     0.935690000000    -0.35676    
O157     O      0.106290000000     0.578640000000     0.942290000000    -0.359928   
O158     O      0.487950000000     0.017920000000     0.931730000000    -0.366892   
O159     O      0.072050000000     0.985500000000     0.487350000000    -0.366958   
O160     O      0.513240000000     0.601010000000     0.491340000000    -0.361956   
O161     O      0.485600000000     0.017910000000     0.486840000000    -0.365607   
O162     O      0.101130000000     0.568990000000     0.493700000000    -0.365644   
O163     O      0.065730000000     0.601700000000     0.495200000000    -0.371296   
O164     O      0.521530000000     0.985780000000     0.488320000000    -0.367652   
O165     O      0.105880000000     0.019940000000     0.487990000000    -0.357998   
O166     O      0.481470000000     0.564950000000     0.487310000000    -0.361776   
O167     O      0.545330000000     0.046420000000     0.951910000000    -0.585661   
O168     O      0.315800000000     0.849040000000     0.680770000000    -0.366426   
O169     O      0.270050000000     0.737290000000     0.684870000000    -0.363722   
O170     O      0.350790000000     0.759920000000     0.687250000000    -0.368475   
O171     O      0.230560000000     0.824300000000     0.691360000000    -0.370496   
O172     O      0.316500000000     0.726700000000     0.693450000000    -0.355677   
O173     O      0.265870000000     0.857210000000     0.690140000000    -0.368415   
O174     O      0.237830000000     0.773130000000     0.682740000000    -0.37373    
O175     O      0.348350000000     0.813420000000     0.679430000000    -0.373261   
O176     O      0.274850000000     0.849940000000     0.743310000000    -0.358536   
O177     O      0.312740000000     0.744280000000     0.747900000000    -0.36444    
O178     O      0.357690000000     0.819160000000     0.731720000000    -0.361692   
O179     O      0.226070000000     0.765900000000     0.732940000000    -0.361392   
O180     O      0.258620000000     0.730350000000     0.734950000000    -0.363548   
O181     O      0.326420000000     0.855960000000     0.731490000000    -0.362214   
O182     O      0.238470000000     0.818230000000     0.743660000000    -0.364824   
O183     O      0.353610000000     0.765890000000     0.736280000000    -0.358398   
O184     O      0.293430000000     0.793980000000     0.722970000000    -0.578482   
O185     O      0.264210000000     0.729300000000     0.598120000000    -0.338426   
O186     O      0.298410000000     0.728420000000     0.627180000000    -0.249886   
O187     O      0.167780000000     0.655420000000     0.931600000000    -0.337271   
O188     O      0.173590000000     0.611210000000     0.947450000000    -0.239075   
O189     O      0.166990000000     0.951140000000     0.496740000000    -0.336236   
O190     O      0.176610000000     0.997560000000     0.488750000000    -0.239763   
O191     O      0.334110000000     0.655220000000     0.701250000000    -0.338448   
O192     O      0.379600000000     0.661200000000     0.688330000000    -0.24452    
O193     O      0.541300000000     0.940410000000     0.865900000000    -0.350092   
O194     O      0.529950000000     0.986990000000     0.870990000000    -0.243075   
O195     O      0.353390000000     0.780410000000     0.817720000000    -0.335769   
O196     O      0.306090000000     0.776180000000     0.810120000000    -0.238104   
O197     O      0.269360000000     0.850600000000     0.830320000000    -0.335957   
O198     O      0.302970000000     0.847920000000     0.800860000000    -0.238258   
O199     O      0.322660000000     0.853660000000     0.596330000000    -0.338114   
O200     O      0.288010000000     0.862890000000     0.623920000000    -0.250599   
O201     O      0.022020000000     0.483920000000     0.434310000000    -0.359383   
O202     O      0.570210000000     0.110620000000     0.443450000000    -0.366916   
O203     O      0.984380000000     0.072490000000     0.435930000000    -0.364201   
O204     O      0.608520000000     0.521810000000     0.438470000000    -0.359058   
O205     O      0.011530000000     0.110380000000     0.446620000000    -0.359562   
O206     O      0.574950000000     0.487270000000     0.435690000000    -0.357028   
O207     O      0.606280000000     0.078640000000     0.442290000000    -0.360088   
O208     O      0.987950000000     0.517920000000     0.431720000000    -0.366447   
O209     O      0.572050000000     0.485500000000     0.987350000000    -0.367064   
O210     O      0.013240000000     0.101010000000     0.991340000000    -0.361975   
O211     O      0.985600000000     0.517910000000     0.986840000000    -0.365174   
O212     O      0.601130000000     0.068990000000     0.993700000000    -0.365271   
O213     O      0.565730000000     0.101700000000     0.995200000000    -0.370886   
O214     O      0.021530000000     0.485780000000     0.988330000000    -0.367793   
O215     O      0.605880000000     0.519940000000     0.987990000000    -0.357563   
O216     O      0.981470000000     0.064950000000     0.987310000000    -0.361748   
O217     O      0.045330000000     0.546420000000     0.451910000000    -0.585663   
O218     O      0.815800000000     0.349040000000     0.180760000000    -0.366411   
O219     O      0.770050000000     0.237290000000     0.184870000000    -0.363723   
O220     O      0.850790000000     0.259930000000     0.187250000000    -0.36836    
O221     O      0.730560000000     0.324300000000     0.191360000000    -0.370493   
O222     O      0.816500000000     0.226700000000     0.193450000000    -0.355617   
O223     O      0.765870000000     0.357210000000     0.190140000000    -0.368405   
O224     O      0.737830000000     0.273130000000     0.182740000000    -0.373729   
O225     O      0.848350000000     0.313420000000     0.179430000000    -0.373279   
O226     O      0.774850000000     0.349940000000     0.243310000000    -0.358529   
O227     O      0.812740000000     0.244280000000     0.247900000000    -0.364479   
O228     O      0.857690000000     0.319160000000     0.231720000000    -0.361695   
O229     O      0.726070000000     0.265900000000     0.232940000000    -0.361378   
O230     O      0.758620000000     0.230350000000     0.234950000000    -0.363531   
O231     O      0.826420000000     0.355960000000     0.231490000000    -0.362206   
O232     O      0.738470000000     0.318230000000     0.243660000000    -0.364822   
O233     O      0.853610000000     0.265880000000     0.236280000000    -0.358456   
O234     O      0.793430000000     0.293980000000     0.222970000000    -0.578473   
O235     O      0.764200000000     0.229300000000     0.098120000000    -0.33822    
O236     O      0.798410000000     0.228420000000     0.127180000000    -0.249848   
O237     O      0.667770000000     0.155420000000     0.431600000000    -0.337169   
O238     O      0.673590000000     0.111210000000     0.447450000000    -0.239187   
O239     O      0.666990000000     0.451140000000     0.996740000000    -0.335833   
O240     O      0.676610000000     0.497560000000     0.988750000000    -0.239594   
O241     O      0.834110000000     0.155210000000     0.201250000000    -0.338549   
O242     O      0.879600000000     0.161200000000     0.188330000000    -0.244535   
O243     O      0.041300000000     0.440410000000     0.365900000000    -0.350186   
O244     O      0.029950000000     0.486980000000     0.370990000000    -0.243392   
O245     O      0.853390000000     0.280400000000     0.317720000000    -0.335668   
O246     O      0.806090000000     0.276170000000     0.310120000000    -0.238186   
O247     O      0.769360000000     0.350600000000     0.330320000000    -0.335908   
O248     O      0.802970000000     0.347920000000     0.300860000000    -0.238195   
O249     O      0.822660000000     0.353660000000     0.096330000000    -0.338113   
O250     O      0.788010000000     0.362890000000     0.123930000000    -0.250556   
O251     O      0.022020000000     0.483920000000     0.934310000000    -0.359352   
O252     O      0.570210000000     0.110620000000     0.943450000000    -0.366902   
O253     O      0.984380000000     0.072490000000     0.935930000000    -0.364171   
O254     O      0.608520000000     0.521810000000     0.938470000000    -0.359049   
O255     O      0.011530000000     0.110380000000     0.946620000000    -0.359451   
O256     O      0.574950000000     0.487270000000     0.935690000000    -0.357011   
O257     O      0.606280000000     0.078640000000     0.942290000000    -0.360076   
O258     O      0.987950000000     0.517920000000     0.931730000000    -0.36647    
O259     O      0.572050000000     0.485500000000     0.487350000000    -0.367106   
O260     O      0.013240000000     0.101010000000     0.491340000000    -0.362003   
O261     O      0.985600000000     0.517910000000     0.486840000000    -0.365179   
O262     O      0.601130000000     0.068990000000     0.493700000000    -0.36566    
O263     O      0.565730000000     0.101700000000     0.495200000000    -0.371281   
O264     O      0.021530000000     0.485780000000     0.488320000000    -0.367844   
O265     O      0.605880000000     0.519940000000     0.487990000000    -0.357577   
O266     O      0.981470000000     0.064950000000     0.487310000000    -0.361774   
O267     O      0.045330000000     0.546420000000     0.951910000000    -0.58567    
O268     O      0.815800000000     0.349040000000     0.680770000000    -0.366427   
O269     O      0.770050000000     0.237290000000     0.684870000000    -0.363725   
O270     O      0.850790000000     0.259930000000     0.687250000000    -0.368362   
O271     O      0.730560000000     0.324300000000     0.691360000000    -0.370495   
O272     O      0.816500000000     0.226700000000     0.693450000000    -0.355619   
O273     O      0.765870000000     0.357210000000     0.690140000000    -0.368416   
O274     O      0.737830000000     0.273130000000     0.682740000000    -0.373729   
O275     O      0.848350000000     0.313420000000     0.679430000000    -0.373248   
O276     O      0.774850000000     0.349940000000     0.743310000000    -0.358541   
O277     O      0.812740000000     0.244280000000     0.747900000000    -0.364475   
O278     O      0.857690000000     0.319160000000     0.731720000000    -0.361694   
O279     O      0.726070000000     0.265900000000     0.732940000000    -0.361377   
O280     O      0.758620000000     0.230350000000     0.734950000000    -0.363531   
O281     O      0.826420000000     0.355960000000     0.731490000000    -0.362205   
O282     O      0.738470000000     0.318230000000     0.743660000000    -0.364824   
O283     O      0.853610000000     0.265880000000     0.736280000000    -0.358458   
O284     O      0.793430000000     0.293980000000     0.722970000000    -0.578482   
O285     O      0.764200000000     0.229300000000     0.598120000000    -0.338064   
O286     O      0.798410000000     0.228420000000     0.627180000000    -0.249828   
O287     O      0.667770000000     0.155420000000     0.931600000000    -0.337152   
O288     O      0.673590000000     0.111210000000     0.947450000000    -0.239121   
O289     O      0.666990000000     0.451140000000     0.496740000000    -0.336285   
O290     O      0.676610000000     0.497560000000     0.488750000000    -0.240031   
O291     O      0.834110000000     0.155210000000     0.701250000000    -0.33855    
O292     O      0.879600000000     0.161200000000     0.688330000000    -0.244539   
O293     O      0.041300000000     0.440410000000     0.865900000000    -0.350181   
O294     O      0.029950000000     0.486980000000     0.870990000000    -0.2434     
O295     O      0.853390000000     0.280400000000     0.817720000000    -0.335665   
O296     O      0.806090000000     0.276170000000     0.810120000000    -0.238182   
O297     O      0.769360000000     0.350600000000     0.830320000000    -0.335904   
O298     O      0.802970000000     0.347920000000     0.800860000000    -0.238193   
O299     O      0.822660000000     0.353660000000     0.596330000000    -0.338117   
O300     O      0.788010000000     0.362890000000     0.623920000000    -0.2506     
O301     O      0.022020000000     0.983920000000     0.434310000000    -0.359242   
O302     O      0.570210000000     0.610620000000     0.443450000000    -0.366916   
O303     O      0.984380000000     0.572490000000     0.435930000000    -0.364199   
O304     O      0.608520000000     0.021810000000     0.438470000000    -0.359456   
O305     O      0.011530000000     0.610380000000     0.446620000000    -0.359582   
O306     O      0.574950000000     0.987260000000     0.435690000000    -0.356778   
O307     O      0.606280000000     0.578640000000     0.442290000000    -0.360071   
O308     O      0.987950000000     0.017920000000     0.431720000000    -0.366858   
O309     O      0.572050000000     0.985500000000     0.987350000000    -0.366919   
O310     O      0.013240000000     0.601010000000     0.991340000000    -0.36197    
O311     O      0.985600000000     0.017910000000     0.986840000000    -0.36558    
O312     O      0.601130000000     0.568990000000     0.993700000000    -0.365261   
O313     O      0.565730000000     0.601700000000     0.995200000000    -0.3709     
O314     O      0.021530000000     0.985780000000     0.988330000000    -0.367638   
O315     O      0.605880000000     0.019940000000     0.987990000000    -0.357991   
O316     O      0.981470000000     0.564950000000     0.987310000000    -0.361739   
O317     O      0.045330000000     0.046420000000     0.451910000000    -0.585652   
O318     O      0.815800000000     0.849040000000     0.180760000000    -0.366409   
O319     O      0.770050000000     0.737290000000     0.184870000000    -0.36372    
O320     O      0.850790000000     0.759920000000     0.187250000000    -0.368472   
O321     O      0.730560000000     0.824300000000     0.191360000000    -0.370492   
O322     O      0.816500000000     0.726700000000     0.193450000000    -0.355674   
O323     O      0.765870000000     0.857210000000     0.190140000000    -0.368402   
O324     O      0.737830000000     0.773130000000     0.182740000000    -0.37373    
O325     O      0.848350000000     0.813420000000     0.179430000000    -0.373291   
O326     O      0.774850000000     0.849940000000     0.243310000000    -0.358524   
O327     O      0.812740000000     0.744280000000     0.247900000000    -0.364443   
O328     O      0.857690000000     0.819160000000     0.231720000000    -0.361691   
O329     O      0.726070000000     0.765900000000     0.232940000000    -0.361392   
O330     O      0.758620000000     0.730350000000     0.234950000000    -0.363548   
O331     O      0.826420000000     0.855960000000     0.231490000000    -0.362215   
O332     O      0.738470000000     0.818230000000     0.243660000000    -0.364822   
O333     O      0.853610000000     0.765890000000     0.236280000000    -0.358394   
O334     O      0.793430000000     0.793980000000     0.222970000000    -0.578474   
O335     O      0.764200000000     0.729300000000     0.098120000000    -0.338219   
O336     O      0.798410000000     0.728420000000     0.127180000000    -0.249852   
O337     O      0.667770000000     0.655420000000     0.431600000000    -0.337164   
O338     O      0.673590000000     0.611210000000     0.447450000000    -0.239141   
O339     O      0.666990000000     0.951140000000     0.996740000000    -0.335782   
O340     O      0.676610000000     0.997560000000     0.988750000000    -0.239329   
O341     O      0.834110000000     0.655220000000     0.201250000000    -0.338448   
O342     O      0.879600000000     0.661200000000     0.188330000000    -0.244514   
O343     O      0.041300000000     0.940410000000     0.365900000000    -0.350107   
O344     O      0.029950000000     0.986990000000     0.370990000000    -0.243078   
O345     O      0.853390000000     0.780410000000     0.317720000000    -0.33577    
O346     O      0.806090000000     0.776180000000     0.310120000000    -0.238109   
O347     O      0.769360000000     0.850600000000     0.330320000000    -0.33596    
O348     O      0.802970000000     0.847920000000     0.300860000000    -0.238259   
O349     O      0.822660000000     0.853660000000     0.096330000000    -0.33811    
O350     O      0.788010000000     0.862890000000     0.123930000000    -0.250552   
O351     O      0.022020000000     0.983920000000     0.934310000000    -0.359212   
O352     O      0.570210000000     0.610620000000     0.943450000000    -0.366902   
O353     O      0.984380000000     0.572490000000     0.935930000000    -0.364169   
O354     O      0.608520000000     0.021810000000     0.938470000000    -0.359447   
O355     O      0.011530000000     0.610380000000     0.946620000000    -0.359472   
O356     O      0.574950000000     0.987260000000     0.935690000000    -0.356762   
O357     O      0.606280000000     0.578640000000     0.942290000000    -0.360059   
O358     O      0.987950000000     0.017920000000     0.931730000000    -0.366881   
O359     O      0.572050000000     0.985500000000     0.487350000000    -0.366961   
O360     O      0.013240000000     0.601010000000     0.491340000000    -0.361999   
O361     O      0.985600000000     0.017910000000     0.486840000000    -0.365586   
O362     O      0.601130000000     0.568990000000     0.493700000000    -0.36565    
O363     O      0.565730000000     0.601700000000     0.495200000000    -0.371296   
O364     O      0.021530000000     0.985780000000     0.488320000000    -0.367689   
O365     O      0.605880000000     0.019940000000     0.487990000000    -0.358005   
O366     O      0.981470000000     0.564950000000     0.487310000000    -0.361765   
O367     O      0.045330000000     0.046420000000     0.951910000000    -0.585658   
O368     O      0.815800000000     0.849040000000     0.680770000000    -0.366425   
O369     O      0.770050000000     0.737290000000     0.684870000000    -0.363723   
O370     O      0.850790000000     0.759920000000     0.687250000000    -0.368474   
O371     O      0.730560000000     0.824300000000     0.691360000000    -0.370494   
O372     O      0.816500000000     0.726700000000     0.693450000000    -0.355676   
O373     O      0.765870000000     0.857210000000     0.690140000000    -0.368413   
O374     O      0.737830000000     0.773130000000     0.682740000000    -0.37373    
O375     O      0.848350000000     0.813420000000     0.679430000000    -0.37326    
O376     O      0.774850000000     0.849940000000     0.743310000000    -0.358536   
O377     O      0.812740000000     0.744280000000     0.747900000000    -0.364439   
O378     O      0.857690000000     0.819160000000     0.731720000000    -0.36169    
O379     O      0.726070000000     0.765900000000     0.732940000000    -0.361392   
O380     O      0.758620000000     0.730350000000     0.734950000000    -0.363548   
O381     O      0.826420000000     0.855960000000     0.731490000000    -0.362214   
O382     O      0.738470000000     0.818230000000     0.743660000000    -0.364824   
O383     O      0.853610000000     0.765890000000     0.736280000000    -0.358395   
O384     O      0.793430000000     0.793980000000     0.722970000000    -0.578483   
O385     O      0.764200000000     0.729300000000     0.598120000000    -0.338064   
O386     O      0.798410000000     0.728420000000     0.627180000000    -0.249831   
O387     O      0.667770000000     0.655420000000     0.931600000000    -0.337147   
O388     O      0.673590000000     0.611210000000     0.947450000000    -0.239075   
O389     O      0.666990000000     0.951140000000     0.496740000000    -0.336234   
O390     O      0.676610000000     0.997560000000     0.488750000000    -0.239766   
O391     O      0.834110000000     0.655220000000     0.701250000000    -0.338449   
O392     O      0.879600000000     0.661200000000     0.688330000000    -0.244518   
O393     O      0.041300000000     0.940410000000     0.865900000000    -0.350102   
O394     O      0.029950000000     0.986990000000     0.870990000000    -0.243086   
O395     O      0.853390000000     0.780410000000     0.817720000000    -0.335767   
O396     O      0.806090000000     0.776180000000     0.810120000000    -0.238105   
O397     O      0.769360000000     0.850600000000     0.830320000000    -0.335957   
O398     O      0.802970000000     0.847920000000     0.800860000000    -0.238258   
O399     O      0.822660000000     0.853660000000     0.596330000000    -0.338114   
O400     O      0.788010000000     0.862890000000     0.623920000000    -0.250596   


