data_structure

_audit_creation_method RASPA-1.0
_audit_creation_date 2023-5-25
_audit_author_name 'Poobodin Mano'

_cell_length_a    45.574
_cell_length_b    45.5552
_cell_length_c    55.0797
_cell_angle_alpha 90
_cell_angle_beta  90
_cell_angle_gamma 90
_cell_volume      114353

_symmetry_cell_setting          triclinic
_symmetry_space_group_name_Hall 'P 1'
_symmetry_space_group_name_H-M  'P 1'
_symmetry_Int_Tables_number     1

_symmetry_equiv_pos_as_xyz 'x,y,z'

loop_
_atom_site_label
_atom_site_type_symbol
_atom_site_fract_x
_atom_site_fract_y
_atom_site_fract_z
_atom_site_charge
C1       C      0.501780000000     0.500080000000     0.990060000000     0.383512   
C2       C      0.102530000000     0.103050000000     0.984680000000     0.38989    
C3       C      0.096160000000     0.507760000000     0.994700000000     0.384925   
C4       C      0.499990000000     0.097800000000     0.989110000000     0.386321   
C5       C      0.493560000000     0.103400000000     0.426440000000     0.392836   
C6       C      0.105740000000     0.494200000000     0.426980000000     0.392396   
C7       C      0.505620000000     0.500900000000     0.417130000000     0.396297   
C8       C      0.102880000000     0.103830000000     0.423170000000     0.39672    
C9       C      0.346650000000     0.343580000000     0.166820000000     0.384307   
C10      C      0.247700000000     0.249490000000     0.171870000000     0.391253   
C11      C      0.350380000000     0.246960000000     0.173750000000     0.388869   
C12      C      0.251200000000     0.348810000000     0.168570000000     0.385304   
C13      C      0.246050000000     0.355480000000     0.233940000000     0.393404   
C14      C      0.352320000000     0.244830000000     0.235510000000     0.394461   
C15      C      0.348920000000     0.349210000000     0.239660000000     0.39421    
C16      C      0.241860000000     0.245440000000     0.232420000000     0.395416   
C17      C      0.231540000000     0.196100000000     0.122520000000    -0.029848   
C18      C      0.119390000000     0.158320000000     0.032070000000    -0.0292497  
C19      C      0.149390000000     0.111420000000     0.005950000000    -0.00874214 
C20      C      0.108850000000     0.149760000000     0.006710000000    -0.00850173 
C21      C      0.184360000000     0.187280000000     0.054320000000    -0.05397    
C22      C      0.166650000000     0.167540000000     0.100110000000    -0.0537722  
C23      C      0.163170000000     0.165140000000     0.056120000000     0.061782   
C24      C      0.158030000000     0.121660000000     0.031360000000    -0.0290387  
C25      C      0.187830000000     0.189670000000     0.098300000000     0.0619614  
C26      C      0.193410000000     0.233180000000     0.123080000000    -0.040506   
C27      C      0.196670000000     0.199520000000     0.075210000000    -0.0564708  
C28      C      0.201700000000     0.243430000000     0.148750000000     0.0348762  
C29      C      0.241860000000     0.204080000000     0.148060000000    -0.00717082 
C30      C      0.154360000000     0.155280000000     0.079230000000    -0.0563538  
C31      C      0.117580000000     0.158390000000     0.375210000000    -0.0299796  
C32      C      0.222380000000     0.189880000000     0.277590000000    -0.029367   
C33      C      0.193420000000     0.237630000000     0.251790000000    -0.00862523 
C34      C      0.231550000000     0.197420000000     0.251650000000    -0.00836522 
C35      C      0.158860000000     0.164620000000     0.304280000000    -0.054013   
C36      C      0.180710000000     0.185950000000     0.348340000000    -0.0536626  
C37      C      0.180450000000     0.186480000000     0.304180000000     0.061776   
C38      C      0.185500000000     0.228630000000     0.277730000000    -0.0292678  
C39      C      0.159170000000     0.164050000000     0.348430000000     0.0617237  
C40      C      0.156180000000     0.121580000000     0.374670000000    -0.0407728  
C41      C      0.148250000000     0.153410000000     0.326190000000    -0.0563525  
C42      C      0.149290000000     0.111790000000     0.400770000000     0.0356692  
C43      C      0.109150000000     0.150800000000     0.401310000000    -0.00680994 
C44      C      0.191350000000     0.197130000000     0.326430000000    -0.0563475  
C45      C      0.154680000000     0.487470000000     0.037710000000    -0.0300096  
C46      C      0.190960000000     0.373200000000     0.127680000000    -0.029345   
C47      C      0.252550000000     0.386730000000     0.136560000000    -0.00902415 
C48      C      0.211000000000     0.349570000000     0.138470000000    -0.00858247 
C49      C      0.189880000000     0.409520000000     0.072670000000    -0.0538207  
C50      C      0.155500000000     0.453000000000     0.094460000000    -0.0533635  
C51      C      0.189940000000     0.412410000000     0.097980000000     0.0616686  
C52      C      0.230540000000     0.408700000000     0.126230000000    -0.0291014  
C53      C      0.155590000000     0.450230000000     0.069130000000     0.0614572  
C54      C      0.113470000000     0.454040000000     0.042620000000    -0.0407321  
C55      C      0.172810000000     0.428150000000     0.058300000000    -0.0561024  
C56      C      0.091980000000     0.476000000000     0.031090000000     0.0362777  
C57      C      0.135160000000     0.510830000000     0.025930000000    -0.00721988 
C58      C      0.172460000000     0.434250000000     0.108850000000    -0.0562682  
C59      C      0.405030000000     0.228570000000     0.125800000000    -0.029804   
C60      C      0.446850000000     0.112820000000     0.039460000000    -0.0293474  
C61      C      0.493750000000     0.142830000000     0.013230000000    -0.00873748 
C62      C      0.455560000000     0.101680000000     0.014290000000    -0.00869759 
C63      C      0.416200000000     0.178170000000     0.059450000000    -0.0537649  
C64      C      0.434920000000     0.162870000000     0.106110000000    -0.053591   
C65      C      0.438650000000     0.157450000000     0.062280000000     0.0614266  
C66      C      0.482950000000     0.151690000000     0.038460000000    -0.0292105  
C67      C      0.412530000000     0.183650000000     0.103270000000     0.0616993  
C68      C      0.368400000000     0.190070000000     0.127270000000    -0.0403796  
C69      C      0.403180000000     0.191220000000     0.079720000000    -0.0563692  
C70      C      0.357450000000     0.199730000000     0.152460000000     0.0343448  
C71      C      0.396330000000     0.240240000000     0.150800000000    -0.00741889 
C72      C      0.447940000000     0.149820000000     0.085830000000    -0.056179   
C73      C      0.449730000000     0.481500000000     0.371240000000    -0.0297968  
C74      C      0.408220000000     0.369540000000     0.282860000000    -0.0293039  
C75      C      0.349410000000     0.389300000000     0.269710000000    -0.00797264 
C76      C      0.386920000000     0.347810000000     0.271340000000    -0.00812613 
C77      C      0.408340000000     0.406660000000     0.337310000000    -0.0539874  
C78      C      0.450360000000     0.444110000000     0.317040000000    -0.0536911  
C79      C      0.410810000000     0.408830000000     0.312040000000     0.0618797  
C80      C      0.372550000000     0.408970000000     0.281530000000    -0.0295821  
C81      C      0.447850000000     0.441970000000     0.342310000000     0.0619389  
C82      C      0.485770000000     0.442300000000     0.373140000000    -0.0411868  
C83      C      0.426660000000     0.423070000000     0.352400000000    -0.0564284  
C84      C      0.508460000000     0.462130000000     0.385750000000     0.0365945  
C85      C      0.470580000000     0.503370000000     0.383110000000    -0.00680681 
C86      C      0.432030000000     0.427680000000     0.301940000000    -0.056324   
C87      C      0.368070000000     0.190300000000     0.283410000000    -0.0297663  
C88      C      0.474890000000     0.158120000000     0.379820000000    -0.0292814  
C89      C      0.445650000000     0.110910000000     0.406090000000    -0.00848385 
C90      C      0.484240000000     0.150810000000     0.405810000000    -0.0086656  
C91      C      0.411110000000     0.184070000000     0.353720000000    -0.0538889  
C92      C      0.431780000000     0.162420000000     0.309390000000    -0.0535139  
C93      C      0.432530000000     0.162020000000     0.353590000000     0.0613544  
C94      C      0.437720000000     0.119810000000     0.380100000000    -0.0294242  
C95      C      0.410360000000     0.184480000000     0.309530000000     0.0613896  
C96      C      0.406910000000     0.226820000000     0.283070000000    -0.0404824  
C97      C      0.400080000000     0.195290000000     0.331930000000    -0.0561892  
C98      C      0.399330000000     0.236540000000     0.257040000000     0.0349173  
C99      C      0.358920000000     0.197860000000     0.257430000000    -0.00738874 
C100     C      0.442850000000     0.151240000000     0.331190000000    -0.0562383  
C101     C      0.230670000000     0.409070000000     0.282750000000    -0.0299364  
C102     C      0.122620000000     0.439990000000     0.379340000000    -0.0294477  
C103     C      0.153300000000     0.485590000000     0.406400000000    -0.00884289 
C104     C      0.113390000000     0.446990000000     0.405470000000    -0.00866882 
C105     C      0.186600000000     0.413600000000     0.352920000000    -0.05382    
C106     C      0.166540000000     0.436600000000     0.308880000000    -0.0533001  
C107     C      0.165100000000     0.435580000000     0.353070000000     0.0613873  
C108     C      0.160850000000     0.477190000000     0.380250000000    -0.0290974  
C109     C      0.188080000000     0.414650000000     0.308730000000     0.0612421  
C110     C      0.191360000000     0.373110000000     0.281460000000    -0.0404365  
C111     C      0.198020000000     0.403130000000     0.331000000000    -0.0561409  
C112     C      0.198960000000     0.364120000000     0.255270000000     0.0349507  
C113     C      0.240030000000     0.402060000000     0.256660000000    -0.00739021 
C114     C      0.155090000000     0.447040000000     0.330810000000    -0.0561314  
C115     C      0.406320000000     0.364650000000     0.124380000000    -0.0300859  
C116     C      0.441660000000     0.476620000000     0.031880000000    -0.0294005  
C117     C      0.502660000000     0.461750000000     0.021680000000    -0.00915361 
C118     C      0.461670000000     0.499700000000     0.020220000000    -0.00881145 
C119     C      0.441890000000     0.441390000000     0.087500000000    -0.0536485  
C120     C      0.406020000000     0.398150000000     0.067100000000    -0.0534822  
C121     C      0.440990000000     0.438100000000     0.062220000000     0.0613991  
C122     C      0.480610000000     0.440500000000     0.032940000000    -0.0291151  
C123     C      0.407080000000     0.401320000000     0.092390000000     0.0614192  
C124     C      0.365630000000     0.398600000000     0.119800000000    -0.0409057  
C125     C      0.425040000000     0.423280000000     0.102520000000    -0.0561403  
C126     C      0.343850000000     0.376990000000     0.131410000000     0.0364265  
C127     C      0.386690000000     0.341570000000     0.136500000000    -0.00728489 
C128     C      0.422750000000     0.416370000000     0.052070000000    -0.0562343  
C129     C      0.501780000000     0.500080000000     0.490060000000     0.383502   
C130     C      0.102530000000     0.103050000000     0.484680000000     0.389887   
C131     C      0.096160000000     0.507760000000     0.494700000000     0.384914   
C132     C      0.499990000000     0.097800000000     0.489110000000     0.386308   
C133     C      0.493560000000     0.103400000000     0.926430000000     0.392755   
C134     C      0.105740000000     0.494200000000     0.926980000000     0.392397   
C135     C      0.505620000000     0.500900000000     0.917130000000     0.396297   
C136     C      0.102880000000     0.103830000000     0.923170000000     0.396661   
C137     C      0.346650000000     0.343580000000     0.666820000000     0.384307   
C138     C      0.247700000000     0.249490000000     0.671870000000     0.391253   
C139     C      0.350380000000     0.246960000000     0.673750000000     0.388869   
C140     C      0.251200000000     0.348810000000     0.668570000000     0.385304   
C141     C      0.246050000000     0.355480000000     0.733940000000     0.393404   
C142     C      0.352320000000     0.244830000000     0.735510000000     0.394461   
C143     C      0.348920000000     0.349210000000     0.739660000000     0.39421    
C144     C      0.241860000000     0.245440000000     0.732420000000     0.395416   
C145     C      0.231540000000     0.196100000000     0.622520000000    -0.0298493  
C146     C      0.119390000000     0.158320000000     0.532070000000    -0.0292549  
C147     C      0.149390000000     0.111420000000     0.505950000000    -0.00872258 
C148     C      0.108850000000     0.149760000000     0.506710000000    -0.00848177 
C149     C      0.184360000000     0.187280000000     0.554320000000    -0.0539697  
C150     C      0.166650000000     0.167540000000     0.600110000000    -0.0537724  
C151     C      0.163170000000     0.165140000000     0.556120000000     0.0617823  
C152     C      0.158030000000     0.121660000000     0.531360000000    -0.0290438  
C153     C      0.187830000000     0.189670000000     0.598300000000     0.0619624  
C154     C      0.193410000000     0.233180000000     0.623070000000    -0.040547   
C155     C      0.196670000000     0.199520000000     0.575210000000    -0.0564702  
C156     C      0.201700000000     0.243430000000     0.648750000000     0.0348801  
C157     C      0.241860000000     0.204080000000     0.648060000000    -0.00717014 
C158     C      0.154360000000     0.155280000000     0.579230000000    -0.0563536  
C159     C      0.117580000000     0.158390000000     0.875210000000    -0.029977   
C160     C      0.222380000000     0.189880000000     0.777590000000    -0.0293671  
C161     C      0.193420000000     0.237630000000     0.751790000000    -0.00862526 
C162     C      0.231550000000     0.197420000000     0.751650000000    -0.00836522 
C163     C      0.158860000000     0.164620000000     0.804280000000    -0.054017   
C164     C      0.180710000000     0.185950000000     0.848340000000    -0.0536774  
C165     C      0.180450000000     0.186480000000     0.804180000000     0.0617753  
C166     C      0.185500000000     0.228630000000     0.777730000000    -0.0292679  
C167     C      0.159170000000     0.164050000000     0.848440000000     0.0617457  
C168     C      0.156180000000     0.121580000000     0.874670000000    -0.0407696  
C169     C      0.148250000000     0.153410000000     0.826190000000    -0.056338   
C170     C      0.149290000000     0.111790000000     0.900770000000     0.0356637  
C171     C      0.109150000000     0.150800000000     0.901310000000    -0.00681192 
C172     C      0.191350000000     0.197130000000     0.826430000000    -0.05634    
C173     C      0.154680000000     0.487470000000     0.537710000000    -0.0300097  
C174     C      0.190960000000     0.373200000000     0.627680000000    -0.029345   
C175     C      0.252550000000     0.386730000000     0.636560000000    -0.00902418 
C176     C      0.211000000000     0.349570000000     0.638470000000    -0.00858248 
C177     C      0.189880000000     0.409520000000     0.572670000000    -0.0538204  
C178     C      0.155500000000     0.453000000000     0.594460000000    -0.0533636  
C179     C      0.189940000000     0.412410000000     0.597980000000     0.0616687  
C180     C      0.230540000000     0.408700000000     0.626230000000    -0.0291014  
C181     C      0.155590000000     0.450230000000     0.569130000000     0.0614574  
C182     C      0.113470000000     0.454040000000     0.542620000000    -0.0407321  
C183     C      0.172810000000     0.428150000000     0.558300000000    -0.0561022  
C184     C      0.091980000000     0.476000000000     0.531090000000     0.0362775  
C185     C      0.135160000000     0.510830000000     0.525930000000    -0.00721993 
C186     C      0.172460000000     0.434250000000     0.608850000000    -0.0562681  
C187     C      0.405030000000     0.228570000000     0.625800000000    -0.0298047  
C188     C      0.446850000000     0.112820000000     0.539460000000    -0.029347   
C189     C      0.493750000000     0.142830000000     0.513230000000    -0.00872563 
C190     C      0.455560000000     0.101680000000     0.514290000000    -0.00869782 
C191     C      0.416200000000     0.178170000000     0.559450000000    -0.0537787  
C192     C      0.434920000000     0.162870000000     0.606100000000    -0.0535024  
C193     C      0.438650000000     0.157450000000     0.562280000000     0.0614401  
C194     C      0.482950000000     0.151690000000     0.538460000000    -0.0292133  
C195     C      0.412530000000     0.183650000000     0.603270000000     0.061659   
C196     C      0.368400000000     0.190070000000     0.627270000000    -0.0403803  
C197     C      0.403180000000     0.191220000000     0.579720000000    -0.0563478  
C198     C      0.357450000000     0.199730000000     0.652460000000     0.0343445  
C199     C      0.396330000000     0.240240000000     0.650800000000    -0.00741887 
C200     C      0.447940000000     0.149820000000     0.585830000000    -0.0562056  
C201     C      0.449730000000     0.481500000000     0.871240000000    -0.0297969  
C202     C      0.408220000000     0.369540000000     0.782860000000    -0.0293034  
C203     C      0.349410000000     0.389300000000     0.769710000000    -0.0079727  
C204     C      0.386920000000     0.347810000000     0.771340000000    -0.00812617 
C205     C      0.408340000000     0.406660000000     0.837300000000    -0.0539982  
C206     C      0.450360000000     0.444110000000     0.817040000000    -0.0536868  
C207     C      0.410810000000     0.408830000000     0.812040000000     0.0619105  
C208     C      0.372550000000     0.408970000000     0.781530000000    -0.0295816  
C209     C      0.447850000000     0.441970000000     0.842310000000     0.0619419  
C210     C      0.485770000000     0.442300000000     0.873140000000    -0.0411869  
C211     C      0.426660000000     0.423070000000     0.852400000000    -0.0564387  
C212     C      0.508460000000     0.462130000000     0.885750000000     0.036595   
C213     C      0.470580000000     0.503370000000     0.883110000000    -0.00680653 
C214     C      0.432030000000     0.427680000000     0.801940000000    -0.0563362  
C215     C      0.368070000000     0.190300000000     0.783410000000    -0.0297584  
C216     C      0.474890000000     0.158120000000     0.879820000000    -0.0292842  
C217     C      0.445650000000     0.110910000000     0.906090000000    -0.00847558 
C218     C      0.484240000000     0.150810000000     0.905810000000    -0.00865748 
C219     C      0.411110000000     0.184070000000     0.853720000000    -0.0538887  
C220     C      0.431780000000     0.162420000000     0.809390000000    -0.0535142  
C221     C      0.432530000000     0.162020000000     0.853590000000     0.0613543  
C222     C      0.437720000000     0.119810000000     0.880100000000    -0.029427   
C223     C      0.410360000000     0.184480000000     0.809530000000     0.0613897  
C224     C      0.406910000000     0.226820000000     0.783070000000    -0.0404818  
C225     C      0.400080000000     0.195290000000     0.831930000000    -0.0561892  
C226     C      0.399330000000     0.236540000000     0.757040000000     0.0349163  
C227     C      0.358920000000     0.197860000000     0.757430000000    -0.00742075 
C228     C      0.442850000000     0.151240000000     0.831190000000    -0.0562382  
C229     C      0.230670000000     0.409070000000     0.782750000000    -0.0299375  
C230     C      0.122620000000     0.439990000000     0.879340000000    -0.0294486  
C231     C      0.153300000000     0.485590000000     0.906400000000    -0.008839   
C232     C      0.113390000000     0.446990000000     0.905470000000    -0.00866837 
C233     C      0.186600000000     0.413600000000     0.852920000000    -0.0538241  
C234     C      0.166540000000     0.436600000000     0.808880000000    -0.0533007  
C235     C      0.165100000000     0.435580000000     0.853070000000     0.0613892  
C236     C      0.160850000000     0.477190000000     0.880240000000    -0.0291391  
C237     C      0.188080000000     0.414650000000     0.808730000000     0.0612441  
C238     C      0.191360000000     0.373110000000     0.781460000000    -0.0404659  
C239     C      0.198020000000     0.403130000000     0.831000000000    -0.0561382  
C240     C      0.198960000000     0.364120000000     0.755260000000     0.0349691  
C241     C      0.240030000000     0.402060000000     0.756660000000    -0.00738873 
C242     C      0.155090000000     0.447040000000     0.830810000000    -0.0561313  
C243     C      0.406320000000     0.364650000000     0.624380000000    -0.0300851  
C244     C      0.441660000000     0.476620000000     0.531890000000    -0.0293479  
C245     C      0.502660000000     0.461750000000     0.521680000000    -0.00915503 
C246     C      0.461670000000     0.499700000000     0.520220000000    -0.00883927 
C247     C      0.441890000000     0.441390000000     0.587500000000    -0.0536491  
C248     C      0.406020000000     0.398150000000     0.567100000000    -0.0534815  
C249     C      0.440990000000     0.438100000000     0.562220000000     0.0614004  
C250     C      0.480610000000     0.440500000000     0.532940000000    -0.0291155  
C251     C      0.407080000000     0.401320000000     0.592390000000     0.0614191  
C252     C      0.365630000000     0.398600000000     0.619800000000    -0.0409078  
C253     C      0.425040000000     0.423280000000     0.602520000000    -0.05614    
C254     C      0.343850000000     0.376990000000     0.631400000000     0.0364139  
C255     C      0.386690000000     0.341570000000     0.636500000000    -0.0072868  
C256     C      0.422750000000     0.416370000000     0.552070000000    -0.0562348  
C257     C      0.501780000000     0.000080000000     0.990060000000     0.378959   
C258     C      0.102530000000     0.603040000000     0.984680000000     0.389955   
C259     C      0.096160000000     0.007760000000     0.994700000000     0.380049   
C260     C      0.499990000000     0.597800000000     0.989110000000     0.386366   
C261     C      0.493560000000     0.603400000000     0.426440000000     0.392866   
C262     C      0.105740000000     0.994200000000     0.426980000000     0.394987   
C263     C      0.505620000000     0.000900000000     0.417130000000     0.391382   
C264     C      0.102880000000     0.603830000000     0.423170000000     0.396776   
C265     C      0.346650000000     0.843580000000     0.166820000000     0.38431    
C266     C      0.247700000000     0.749490000000     0.171870000000     0.391107   
C267     C      0.350380000000     0.746960000000     0.173750000000     0.388855   
C268     C      0.251200000000     0.848810000000     0.168570000000     0.385304   
C269     C      0.246050000000     0.855480000000     0.233940000000     0.3934     
C270     C      0.352320000000     0.744830000000     0.235510000000     0.394452   
C271     C      0.348920000000     0.849210000000     0.239660000000     0.394215   
C272     C      0.241860000000     0.745440000000     0.232420000000     0.395409   
C273     C      0.231540000000     0.696100000000     0.122520000000    -0.029848   
C274     C      0.119390000000     0.658320000000     0.032070000000    -0.0292224  
C275     C      0.149390000000     0.611420000000     0.005950000000    -0.00874789 
C276     C      0.108850000000     0.649770000000     0.006710000000    -0.00859818 
C277     C      0.184360000000     0.687280000000     0.054320000000    -0.0539525  
C278     C      0.166650000000     0.667540000000     0.100110000000    -0.0537155  
C279     C      0.163170000000     0.665140000000     0.056120000000     0.061813   
C280     C      0.158030000000     0.621660000000     0.031360000000    -0.0290572  
C281     C      0.187830000000     0.689670000000     0.098300000000     0.0619885  
C282     C      0.193410000000     0.733180000000     0.123080000000    -0.0405007  
C283     C      0.196670000000     0.699520000000     0.075210000000    -0.0564543  
C284     C      0.201700000000     0.743430000000     0.148750000000     0.0348463  
C285     C      0.241860000000     0.704080000000     0.148060000000    -0.00718447 
C286     C      0.154360000000     0.655280000000     0.079230000000    -0.0563128  
C287     C      0.117580000000     0.658390000000     0.375210000000    -0.0299999  
C288     C      0.222380000000     0.689880000000     0.277590000000    -0.0293683  
C289     C      0.193420000000     0.737630000000     0.251790000000    -0.00858779 
C290     C      0.231550000000     0.697420000000     0.251650000000    -0.00837454 
C291     C      0.158860000000     0.664620000000     0.304280000000    -0.0539534  
C292     C      0.180710000000     0.685950000000     0.348340000000    -0.0536447  
C293     C      0.180450000000     0.686480000000     0.304180000000     0.0618055  
C294     C      0.185500000000     0.728630000000     0.277730000000    -0.0292824  
C295     C      0.159170000000     0.664050000000     0.348430000000     0.0617546  
C296     C      0.156180000000     0.621580000000     0.374670000000    -0.0407888  
C297     C      0.148250000000     0.653410000000     0.326190000000    -0.0563081  
C298     C      0.149290000000     0.611790000000     0.400770000000     0.0356353  
C299     C      0.109150000000     0.650800000000     0.401310000000    -0.00679054 
C300     C      0.191350000000     0.697130000000     0.326430000000    -0.0563305  
C301     C      0.154680000000     0.987470000000     0.037710000000    -0.0275769  
C302     C      0.190960000000     0.873200000000     0.127680000000    -0.0293627  
C303     C      0.252550000000     0.886730000000     0.136560000000    -0.00900749 
C304     C      0.211000000000     0.849570000000     0.138470000000    -0.00857567 
C305     C      0.189880000000     0.909520000000     0.072670000000    -0.0537476  
C306     C      0.155500000000     0.953000000000     0.094460000000    -0.0532914  
C307     C      0.189940000000     0.912410000000     0.097980000000     0.0616901  
C308     C      0.230540000000     0.908700000000     0.126230000000    -0.0291337  
C309     C      0.155590000000     0.950230000000     0.069130000000     0.0615822  
C310     C      0.113470000000     0.954040000000     0.042620000000    -0.0403788  
C311     C      0.172810000000     0.928150000000     0.058300000000    -0.0561116  
C312     C      0.091980000000     0.976000000000     0.031090000000     0.0357628  
C313     C      0.135160000000     0.010830000000     0.025930000000    -0.0111312  
C314     C      0.172460000000     0.934250000000     0.108850000000    -0.056174   
C315     C      0.405030000000     0.728570000000     0.125800000000    -0.0298055  
C316     C      0.446850000000     0.612820000000     0.039460000000    -0.0293767  
C317     C      0.493750000000     0.642830000000     0.013230000000    -0.0087165  
C318     C      0.455560000000     0.601680000000     0.014290000000    -0.00867108 
C319     C      0.416200000000     0.678170000000     0.059450000000    -0.0537533  
C320     C      0.434920000000     0.662870000000     0.106110000000    -0.0535168  
C321     C      0.438650000000     0.657450000000     0.062280000000     0.0614792  
C322     C      0.482950000000     0.651690000000     0.038460000000    -0.0292302  
C323     C      0.412530000000     0.683650000000     0.103270000000     0.0617192  
C324     C      0.368400000000     0.690070000000     0.127270000000    -0.0403696  
C325     C      0.403180000000     0.691220000000     0.079720000000    -0.0563408  
C326     C      0.357450000000     0.699730000000     0.152460000000     0.0342775  
C327     C      0.396330000000     0.740240000000     0.150800000000    -0.00742727 
C328     C      0.447940000000     0.649810000000     0.085830000000    -0.0561831  
C329     C      0.449730000000     0.981500000000     0.371240000000    -0.0273842  
C330     C      0.408220000000     0.869540000000     0.282860000000    -0.0293206  
C331     C      0.349410000000     0.889300000000     0.269710000000    -0.00795667 
C332     C      0.386920000000     0.847810000000     0.271340000000    -0.00811833 
C333     C      0.408340000000     0.906660000000     0.337310000000    -0.053921   
C334     C      0.450360000000     0.944100000000     0.317040000000    -0.0535689  
C335     C      0.410810000000     0.908830000000     0.312040000000     0.0619143  
C336     C      0.372550000000     0.908970000000     0.281530000000    -0.0296127  
C337     C      0.447850000000     0.941970000000     0.342310000000     0.0620243  
C338     C      0.485770000000     0.942300000000     0.373140000000    -0.0408907  
C339     C      0.426660000000     0.923070000000     0.352400000000    -0.0564184  
C340     C      0.508460000000     0.962130000000     0.385750000000     0.0361712  
C341     C      0.470580000000     0.003360000000     0.383110000000    -0.0106273  
C342     C      0.432030000000     0.927680000000     0.301940000000    -0.0562513  
C343     C      0.368070000000     0.690300000000     0.283410000000    -0.0298159  
C344     C      0.474890000000     0.658120000000     0.379820000000    -0.0292995  
C345     C      0.445650000000     0.610910000000     0.406090000000    -0.00847695 
C346     C      0.484240000000     0.650810000000     0.405810000000    -0.00865071 
C347     C      0.411110000000     0.684070000000     0.353720000000    -0.0538685  
C348     C      0.431780000000     0.662420000000     0.309390000000    -0.0534558  
C349     C      0.432530000000     0.662020000000     0.353590000000     0.0613872  
C350     C      0.437720000000     0.619810000000     0.380100000000    -0.0294451  
C351     C      0.410360000000     0.684480000000     0.309530000000     0.0614201  
C352     C      0.406910000000     0.726820000000     0.283070000000    -0.0404795  
C353     C      0.400080000000     0.695290000000     0.331930000000    -0.0561712  
C354     C      0.399330000000     0.736540000000     0.257040000000     0.0348881  
C355     C      0.358920000000     0.697870000000     0.257430000000    -0.00728339 
C356     C      0.442850000000     0.651240000000     0.331190000000    -0.0561935  
C357     C      0.230670000000     0.909070000000     0.282750000000    -0.0299351  
C358     C      0.122620000000     0.939990000000     0.379340000000    -0.0295454  
C359     C      0.153300000000     0.985590000000     0.406400000000    -0.00586357 
C360     C      0.113390000000     0.946990000000     0.405470000000    -0.00850844 
C361     C      0.186600000000     0.913600000000     0.352920000000    -0.0537802  
C362     C      0.166540000000     0.936600000000     0.308880000000    -0.0532068  
C363     C      0.165100000000     0.935580000000     0.353070000000     0.0614427  
C364     C      0.160850000000     0.977190000000     0.380250000000    -0.0299785  
C365     C      0.188080000000     0.914650000000     0.308730000000     0.0612925  
C366     C      0.191360000000     0.873110000000     0.281460000000    -0.0404256  
C367     C      0.198020000000     0.903130000000     0.331000000000    -0.0561036  
C368     C      0.198960000000     0.864120000000     0.255270000000     0.0349056  
C369     C      0.240030000000     0.902060000000     0.256660000000    -0.00740329 
C370     C      0.155090000000     0.947040000000     0.330810000000    -0.0560602  
C371     C      0.406320000000     0.864650000000     0.124380000000    -0.0300978  
C372     C      0.441660000000     0.976620000000     0.031880000000    -0.0308922  
C373     C      0.502660000000     0.961750000000     0.021680000000    -0.0091369  
C374     C      0.461670000000     0.999700000000     0.020220000000    -0.00342258 
C375     C      0.441890000000     0.941390000000     0.087500000000    -0.0535707  
C376     C      0.406020000000     0.898150000000     0.067100000000    -0.0534271  
C377     C      0.440990000000     0.938100000000     0.062220000000     0.0614856  
C378     C      0.480610000000     0.940490000000     0.032940000000    -0.0292553  
C379     C      0.407080000000     0.901320000000     0.092390000000     0.0614421  
C380     C      0.365630000000     0.898600000000     0.119800000000    -0.0409353  
C381     C      0.425040000000     0.923280000000     0.102520000000    -0.0560578  
C382     C      0.343850000000     0.876990000000     0.131410000000     0.0364294  
C383     C      0.386690000000     0.841570000000     0.136500000000    -0.00729984 
C384     C      0.422750000000     0.916370000000     0.052070000000    -0.0562082  
C385     C      0.501780000000     0.000080000000     0.490060000000     0.378948   
C386     C      0.102530000000     0.603040000000     0.484680000000     0.389952   
C387     C      0.096160000000     0.007760000000     0.494700000000     0.380036   
C388     C      0.499990000000     0.597800000000     0.489110000000     0.386353   
C389     C      0.493560000000     0.603400000000     0.926430000000     0.392785   
C390     C      0.105740000000     0.994200000000     0.926980000000     0.394988   
C391     C      0.505620000000     0.000900000000     0.917130000000     0.391382   
C392     C      0.102880000000     0.603830000000     0.923170000000     0.396717   
C393     C      0.346650000000     0.843580000000     0.666820000000     0.38431    
C394     C      0.247700000000     0.749490000000     0.671870000000     0.391107   
C395     C      0.350380000000     0.746960000000     0.673750000000     0.388855   
C396     C      0.251200000000     0.848810000000     0.668570000000     0.385304   
C397     C      0.246050000000     0.855480000000     0.733940000000     0.3934     
C398     C      0.352320000000     0.744830000000     0.735510000000     0.394452   
C399     C      0.348920000000     0.849210000000     0.739660000000     0.394215   
C400     C      0.241860000000     0.745440000000     0.732420000000     0.395409   
C401     C      0.231540000000     0.696100000000     0.622520000000    -0.0298493  
C402     C      0.119390000000     0.658320000000     0.532070000000    -0.0292279  
C403     C      0.149390000000     0.611420000000     0.505950000000    -0.0087271  
C404     C      0.108850000000     0.649770000000     0.506710000000    -0.00857702 
C405     C      0.184360000000     0.687280000000     0.554320000000    -0.0539521  
C406     C      0.166650000000     0.667540000000     0.600110000000    -0.0537157  
C407     C      0.163170000000     0.665140000000     0.556120000000     0.0618133  
C408     C      0.158030000000     0.621660000000     0.531360000000    -0.0290627  
C409     C      0.187830000000     0.689670000000     0.598300000000     0.0619895  
C410     C      0.193410000000     0.733180000000     0.623070000000    -0.0405417  
C411     C      0.196670000000     0.699520000000     0.575210000000    -0.0564537  
C412     C      0.201700000000     0.743430000000     0.648750000000     0.0348502  
C413     C      0.241860000000     0.704080000000     0.648060000000    -0.0071838  
C414     C      0.154360000000     0.655280000000     0.579230000000    -0.0563126  
C415     C      0.117580000000     0.658390000000     0.875210000000    -0.0299973  
C416     C      0.222380000000     0.689880000000     0.777590000000    -0.0293683  
C417     C      0.193420000000     0.737630000000     0.751790000000    -0.00858782 
C418     C      0.231550000000     0.697420000000     0.751650000000    -0.00837454 
C419     C      0.158860000000     0.664620000000     0.804280000000    -0.0539574  
C420     C      0.180710000000     0.685950000000     0.848340000000    -0.0536595  
C421     C      0.180450000000     0.686480000000     0.804180000000     0.0618047  
C422     C      0.185500000000     0.728630000000     0.777730000000    -0.0292824  
C423     C      0.159170000000     0.664050000000     0.848440000000     0.0617766  
C424     C      0.156180000000     0.621580000000     0.874670000000    -0.0407856  
C425     C      0.148250000000     0.653410000000     0.826190000000    -0.0562935  
C426     C      0.149290000000     0.611790000000     0.900770000000     0.0356298  
C427     C      0.109150000000     0.650800000000     0.901310000000    -0.00679252 
C428     C      0.191350000000     0.697130000000     0.826430000000    -0.0563229  
C429     C      0.154680000000     0.987470000000     0.537710000000    -0.0275751  
C430     C      0.190960000000     0.873200000000     0.627680000000    -0.0293627  
C431     C      0.252550000000     0.886730000000     0.636560000000    -0.00900752 
C432     C      0.211000000000     0.849570000000     0.638470000000    -0.00857569 
C433     C      0.189880000000     0.909520000000     0.572670000000    -0.0537472  
C434     C      0.155500000000     0.953000000000     0.594460000000    -0.0532914  
C435     C      0.189940000000     0.912410000000     0.597980000000     0.0616901  
C436     C      0.230540000000     0.908700000000     0.626230000000    -0.0291338  
C437     C      0.155590000000     0.950230000000     0.569130000000     0.0615825  
C438     C      0.113470000000     0.954040000000     0.542620000000    -0.0403787  
C439     C      0.172810000000     0.928150000000     0.558300000000    -0.0561115  
C440     C      0.091980000000     0.976000000000     0.531090000000     0.0357624  
C441     C      0.135160000000     0.010830000000     0.525930000000    -0.0111341  
C442     C      0.172460000000     0.934250000000     0.608850000000    -0.0561739  
C443     C      0.405030000000     0.728570000000     0.625800000000    -0.0298062  
C444     C      0.446850000000     0.612820000000     0.539460000000    -0.0293763  
C445     C      0.493750000000     0.642830000000     0.513230000000    -0.00870398 
C446     C      0.455560000000     0.601680000000     0.514290000000    -0.00867129 
C447     C      0.416200000000     0.678170000000     0.559450000000    -0.053767   
C448     C      0.434920000000     0.662870000000     0.606100000000    -0.0534282  
C449     C      0.438650000000     0.657450000000     0.562280000000     0.0614928  
C450     C      0.482950000000     0.651690000000     0.538460000000    -0.0292332  
C451     C      0.412530000000     0.683650000000     0.603270000000     0.0616788  
C452     C      0.368400000000     0.690070000000     0.627270000000    -0.0403703  
C453     C      0.403180000000     0.691220000000     0.579720000000    -0.0563194  
C454     C      0.357450000000     0.699730000000     0.652460000000     0.0342772  
C455     C      0.396330000000     0.740240000000     0.650800000000    -0.00742724 
C456     C      0.447940000000     0.649810000000     0.585830000000    -0.0562097  
C457     C      0.449730000000     0.981500000000     0.871240000000    -0.0273844  
C458     C      0.408220000000     0.869540000000     0.782860000000    -0.0293201  
C459     C      0.349410000000     0.889300000000     0.769710000000    -0.00795672 
C460     C      0.386920000000     0.847810000000     0.771340000000    -0.00811838 
C461     C      0.408340000000     0.906660000000     0.837300000000    -0.0539317  
C462     C      0.450360000000     0.944100000000     0.817040000000    -0.0535647  
C463     C      0.410810000000     0.908830000000     0.812040000000     0.0619451  
C464     C      0.372550000000     0.908970000000     0.781530000000    -0.0296122  
C465     C      0.447850000000     0.941970000000     0.842310000000     0.0620273  
C466     C      0.485770000000     0.942300000000     0.873140000000    -0.0408909  
C467     C      0.426660000000     0.923070000000     0.852400000000    -0.0564287  
C468     C      0.508460000000     0.962130000000     0.885750000000     0.0361718  
C469     C      0.470580000000     0.003360000000     0.883110000000    -0.0106269  
C470     C      0.432030000000     0.927680000000     0.801940000000    -0.0562635  
C471     C      0.368070000000     0.690300000000     0.783410000000    -0.029808   
C472     C      0.474890000000     0.658120000000     0.879820000000    -0.0293023  
C473     C      0.445650000000     0.610910000000     0.906090000000    -0.00846868 
C474     C      0.484240000000     0.650810000000     0.905810000000    -0.00864258 
C475     C      0.411110000000     0.684070000000     0.853720000000    -0.0538683  
C476     C      0.431780000000     0.662420000000     0.809390000000    -0.0534561  
C477     C      0.432530000000     0.662020000000     0.853590000000     0.0613871  
C478     C      0.437720000000     0.619810000000     0.880100000000    -0.0294479  
C479     C      0.410360000000     0.684480000000     0.809530000000     0.0614202  
C480     C      0.406910000000     0.726820000000     0.783070000000    -0.0404789  
C481     C      0.400080000000     0.695290000000     0.831930000000    -0.0561712  
C482     C      0.399330000000     0.736540000000     0.757040000000     0.034887   
C483     C      0.358920000000     0.697870000000     0.757430000000    -0.00731537 
C484     C      0.442850000000     0.651240000000     0.831190000000    -0.0561934  
C485     C      0.230670000000     0.909070000000     0.782750000000    -0.0299363  
C486     C      0.122620000000     0.939990000000     0.879340000000    -0.0295464  
C487     C      0.153300000000     0.985590000000     0.906400000000    -0.00586049 
C488     C      0.113390000000     0.946990000000     0.905470000000    -0.00850804 
C489     C      0.186600000000     0.913600000000     0.852920000000    -0.0537843  
C490     C      0.166540000000     0.936600000000     0.808880000000    -0.0532074  
C491     C      0.165100000000     0.935580000000     0.853070000000     0.0614446  
C492     C      0.160850000000     0.977190000000     0.880240000000    -0.0300195  
C493     C      0.188080000000     0.914650000000     0.808730000000     0.0612945  
C494     C      0.191360000000     0.873110000000     0.781460000000    -0.040455   
C495     C      0.198020000000     0.903130000000     0.831000000000    -0.0561009  
C496     C      0.198960000000     0.864120000000     0.755260000000     0.0349239  
C497     C      0.240030000000     0.902060000000     0.756660000000    -0.00740182 
C498     C      0.155090000000     0.947040000000     0.830810000000    -0.0560601  
C499     C      0.406320000000     0.864650000000     0.624380000000    -0.030097   
C500     C      0.441660000000     0.976620000000     0.531890000000    -0.0308398  
C501     C      0.502660000000     0.961750000000     0.521680000000    -0.00913822 
C502     C      0.461670000000     0.999700000000     0.520220000000    -0.00344687 
C503     C      0.441890000000     0.941390000000     0.587500000000    -0.0535713  
C504     C      0.406020000000     0.898150000000     0.567100000000    -0.0534264  
C505     C      0.440990000000     0.938100000000     0.562220000000     0.061487   
C506     C      0.480610000000     0.940490000000     0.532940000000    -0.0292558  
C507     C      0.407080000000     0.901320000000     0.592390000000     0.0614419  
C508     C      0.365630000000     0.898600000000     0.619800000000    -0.0409374  
C509     C      0.425040000000     0.923280000000     0.602520000000    -0.0560574  
C510     C      0.343850000000     0.876990000000     0.631400000000     0.0364168  
C511     C      0.386690000000     0.841570000000     0.636500000000    -0.00730176 
C512     C      0.422750000000     0.916370000000     0.552070000000    -0.0562087  
C513     C      0.001780000000     0.500080000000     0.990060000000     0.380253   
C514     C      0.602530000000     0.103050000000     0.984680000000     0.389921   
C515     C      0.596160000000     0.507760000000     0.994700000000     0.384946   
C516     C      0.999990000000     0.097800000000     0.989110000000     0.388071   
C517     C      0.993560000000     0.103400000000     0.426440000000     0.394544   
C518     C      0.605740000000     0.494200000000     0.426980000000     0.39241    
C519     C      0.005620000000     0.500900000000     0.417130000000     0.393031   
C520     C      0.602880000000     0.103830000000     0.423170000000     0.396752   
C521     C      0.846650000000     0.343580000000     0.166820000000     0.384308   
C522     C      0.747700000000     0.249490000000     0.171870000000     0.391177   
C523     C      0.850380000000     0.246960000000     0.173750000000     0.388862   
C524     C      0.751210000000     0.348810000000     0.168570000000     0.385196   
C525     C      0.746050000000     0.355480000000     0.233940000000     0.393396   
C526     C      0.852320000000     0.244830000000     0.235510000000     0.394453   
C527     C      0.848920000000     0.349210000000     0.239660000000     0.394215   
C528     C      0.741860000000     0.245440000000     0.232420000000     0.395408   
C529     C      0.731540000000     0.196100000000     0.122520000000    -0.0298285  
C530     C      0.619390000000     0.158320000000     0.032070000000    -0.0292671  
C531     C      0.649390000000     0.111420000000     0.005950000000    -0.00873151 
C532     C      0.608850000000     0.149760000000     0.006710000000    -0.0084883  
C533     C      0.684360000000     0.187280000000     0.054320000000    -0.0539569  
C534     C      0.666650000000     0.167540000000     0.100110000000    -0.0537345  
C535     C      0.663170000000     0.165140000000     0.056120000000     0.0618043  
C536     C      0.658030000000     0.121660000000     0.031360000000    -0.02905    
C537     C      0.687830000000     0.189670000000     0.098300000000     0.0619788  
C538     C      0.693410000000     0.233180000000     0.123080000000    -0.0405148  
C539     C      0.696670000000     0.199520000000     0.075210000000    -0.056458   
C540     C      0.701700000000     0.243430000000     0.148750000000     0.0348787  
C541     C      0.741860000000     0.204080000000     0.148060000000    -0.00723173 
C542     C      0.654360000000     0.155280000000     0.079230000000    -0.0563259  
C543     C      0.617580000000     0.158390000000     0.375210000000    -0.0299607  
C544     C      0.722380000000     0.189880000000     0.277590000000    -0.0293828  
C545     C      0.693420000000     0.237630000000     0.251790000000    -0.00863409 
C546     C      0.731550000000     0.197420000000     0.251650000000    -0.00832605 
C547     C      0.658860000000     0.164620000000     0.304280000000    -0.0539768  
C548     C      0.680720000000     0.185950000000     0.348340000000    -0.0536415  
C549     C      0.680450000000     0.186480000000     0.304180000000     0.0617991  
C550     C      0.685490000000     0.228630000000     0.277730000000    -0.0293078  
C551     C      0.659170000000     0.164050000000     0.348430000000     0.0617137  
C552     C      0.656180000000     0.121580000000     0.374670000000    -0.0407535  
C553     C      0.648250000000     0.153410000000     0.326190000000    -0.0563041  
C554     C      0.649290000000     0.111790000000     0.400770000000     0.0356707  
C555     C      0.609150000000     0.150800000000     0.401310000000    -0.00676989 
C556     C      0.691350000000     0.197130000000     0.326430000000    -0.0563297  
C557     C      0.654680000000     0.487470000000     0.037710000000    -0.0300064  
C558     C      0.690960000000     0.373200000000     0.127680000000    -0.0293226  
C559     C      0.752550000000     0.386730000000     0.136560000000    -0.00903555 
C560     C      0.711000000000     0.349570000000     0.138470000000    -0.00859577 
C561     C      0.689880000000     0.409520000000     0.072670000000    -0.0538199  
C562     C      0.655500000000     0.453000000000     0.094460000000    -0.0533292  
C563     C      0.689940000000     0.412410000000     0.097980000000     0.0617174  
C564     C      0.730540000000     0.408700000000     0.126230000000    -0.0291372  
C565     C      0.655590000000     0.450230000000     0.069130000000     0.0614798  
C566     C      0.613470000000     0.454040000000     0.042620000000    -0.040701   
C567     C      0.672810000000     0.428150000000     0.058300000000    -0.0560837  
C568     C      0.591980000000     0.476000000000     0.031090000000     0.0361468  
C569     C      0.635160000000     0.510830000000     0.025930000000    -0.00722812 
C570     C      0.672460000000     0.434250000000     0.108850000000    -0.0562523  
C571     C      0.905030000000     0.228570000000     0.125800000000    -0.0298261  
C572     C      0.946850000000     0.112820000000     0.039460000000    -0.0294171  
C573     C      0.993750000000     0.142830000000     0.013230000000    -0.00674429 
C574     C      0.955560000000     0.101680000000     0.014290000000    -0.00857759 
C575     C      0.916200000000     0.178170000000     0.059450000000    -0.0537402  
C576     C      0.934920000000     0.162870000000     0.106110000000    -0.0535255  
C577     C      0.938650000000     0.157450000000     0.062280000000     0.0614668  
C578     C      0.982950000000     0.151690000000     0.038460000000    -0.0298007  
C579     C      0.912530000000     0.183650000000     0.103270000000     0.0617276  
C580     C      0.868400000000     0.190070000000     0.127270000000    -0.0403757  
C581     C      0.903180000000     0.191220000000     0.079720000000    -0.0563427  
C582     C      0.857450000000     0.199730000000     0.152460000000     0.0343237  
C583     C      0.896330000000     0.240240000000     0.150800000000    -0.0074162  
C584     C      0.947940000000     0.149820000000     0.085830000000    -0.056133   
C585     C      0.949730000000     0.481500000000     0.371240000000    -0.0295759  
C586     C      0.908220000000     0.369540000000     0.282860000000    -0.0293244  
C587     C      0.849410000000     0.389300000000     0.269710000000    -0.00796611 
C588     C      0.886920000000     0.347810000000     0.271340000000    -0.00812291 
C589     C      0.908340000000     0.406660000000     0.337310000000    -0.0539326  
C590     C      0.950360000000     0.444110000000     0.317040000000    -0.0536244  
C591     C      0.910810000000     0.408830000000     0.312040000000     0.0618945  
C592     C      0.872550000000     0.408970000000     0.281530000000    -0.0295946  
C593     C      0.947850000000     0.441970000000     0.342310000000     0.0620069  
C594     C      0.985770000000     0.442300000000     0.373140000000    -0.0396621  
C595     C      0.926650000000     0.423070000000     0.352400000000    -0.0564121  
C596     C      0.008460000000     0.462130000000     0.385750000000     0.0343899  
C597     C      0.970580000000     0.503370000000     0.383110000000    -0.00700518 
C598     C      0.932030000000     0.427680000000     0.301940000000    -0.0562627  
C599     C      0.868070000000     0.190300000000     0.283410000000    -0.0297832  
C600     C      0.974890000000     0.158120000000     0.379820000000    -0.0298687  
C601     C      0.945640000000     0.110910000000     0.406090000000    -0.00849382 
C602     C      0.984240000000     0.150810000000     0.405810000000    -0.00666965 
C603     C      0.911110000000     0.184070000000     0.353720000000    -0.0538546  
C604     C      0.931780000000     0.162420000000     0.309390000000    -0.0534746  
C605     C      0.932530000000     0.162020000000     0.353590000000     0.0613733  
C606     C      0.937720000000     0.119810000000     0.380100000000    -0.0294424  
C607     C      0.910360000000     0.184480000000     0.309530000000     0.0614261  
C608     C      0.906910000000     0.226820000000     0.283070000000    -0.0404699  
C609     C      0.900080000000     0.195290000000     0.331930000000    -0.0561712  
C610     C      0.899330000000     0.236540000000     0.257040000000     0.0348466  
C611     C      0.858920000000     0.197860000000     0.257430000000    -0.00738918 
C612     C      0.942850000000     0.151240000000     0.331190000000    -0.0561441  
C613     C      0.730670000000     0.409070000000     0.282750000000    -0.0299373  
C614     C      0.622620000000     0.439990000000     0.379340000000    -0.0294608  
C615     C      0.653300000000     0.485590000000     0.406400000000    -0.00885358 
C616     C      0.613390000000     0.446990000000     0.405470000000    -0.00866749 
C617     C      0.686600000000     0.413600000000     0.352920000000    -0.0538225  
C618     C      0.666540000000     0.436600000000     0.308880000000    -0.0532584  
C619     C      0.665100000000     0.435580000000     0.353070000000     0.0614139  
C620     C      0.660860000000     0.477190000000     0.380250000000    -0.0291451  
C621     C      0.688080000000     0.414650000000     0.308730000000     0.0612447  
C622     C      0.691360000000     0.373110000000     0.281460000000    -0.0404282  
C623     C      0.698010000000     0.403130000000     0.331000000000    -0.0560849  
C624     C      0.698960000000     0.364120000000     0.255270000000     0.0348995  
C625     C      0.740030000000     0.402060000000     0.256660000000    -0.00739628 
C626     C      0.655090000000     0.447040000000     0.330810000000    -0.0561101  
C627     C      0.906320000000     0.364650000000     0.124380000000    -0.0301064  
C628     C      0.941660000000     0.476620000000     0.031880000000    -0.0292063  
C629     C      0.002660000000     0.461750000000     0.021680000000    -0.0118252  
C630     C      0.961670000000     0.499700000000     0.020220000000    -0.00901709 
C631     C      0.941890000000     0.441390000000     0.087500000000    -0.0535954  
C632     C      0.906020000000     0.398150000000     0.067100000000    -0.053428   
C633     C      0.940990000000     0.438100000000     0.062220000000     0.0614847  
C634     C      0.980600000000     0.440500000000     0.032940000000    -0.0274111  
C635     C      0.907080000000     0.401320000000     0.092390000000     0.0614368  
C636     C      0.865630000000     0.398600000000     0.119800000000    -0.0409162  
C637     C      0.925040000000     0.423280000000     0.102520000000    -0.0560812  
C638     C      0.843850000000     0.376990000000     0.131410000000     0.0364296  
C639     C      0.886690000000     0.341570000000     0.136500000000    -0.00727472 
C640     C      0.922750000000     0.416370000000     0.052070000000    -0.0562385  
C641     C      0.001780000000     0.500080000000     0.490060000000     0.380242   
C642     C      0.602530000000     0.103050000000     0.484680000000     0.389917   
C643     C      0.596160000000     0.507760000000     0.494700000000     0.384934   
C644     C      0.999990000000     0.097800000000     0.489110000000     0.388058   
C645     C      0.993560000000     0.103400000000     0.926430000000     0.394463   
C646     C      0.605740000000     0.494200000000     0.926980000000     0.392411   
C647     C      0.005620000000     0.500900000000     0.917130000000     0.393032   
C648     C      0.602880000000     0.103830000000     0.923170000000     0.396694   
C649     C      0.846650000000     0.343580000000     0.666820000000     0.384307   
C650     C      0.747700000000     0.249490000000     0.671870000000     0.391177   
C651     C      0.850380000000     0.246960000000     0.673750000000     0.388863   
C652     C      0.751210000000     0.348810000000     0.668570000000     0.385196   
C653     C      0.746050000000     0.355480000000     0.733940000000     0.393396   
C654     C      0.852320000000     0.244830000000     0.735510000000     0.394453   
C655     C      0.848920000000     0.349210000000     0.739660000000     0.394215   
C656     C      0.741860000000     0.245440000000     0.732420000000     0.395408   
C657     C      0.731540000000     0.196100000000     0.622520000000    -0.0298298  
C658     C      0.619390000000     0.158320000000     0.532070000000    -0.0292725  
C659     C      0.649390000000     0.111420000000     0.505950000000    -0.00871136 
C660     C      0.608850000000     0.149760000000     0.506710000000    -0.00846772 
C661     C      0.684360000000     0.187280000000     0.554320000000    -0.0539565  
C662     C      0.666650000000     0.167540000000     0.600110000000    -0.0537347  
C663     C      0.663170000000     0.165140000000     0.556120000000     0.0618046  
C664     C      0.658030000000     0.121660000000     0.531360000000    -0.0290553  
C665     C      0.687830000000     0.189670000000     0.598300000000     0.0619798  
C666     C      0.693410000000     0.233180000000     0.623070000000    -0.0405557  
C667     C      0.696670000000     0.199520000000     0.575210000000    -0.0564573  
C668     C      0.701700000000     0.243430000000     0.648750000000     0.0348825  
C669     C      0.741860000000     0.204080000000     0.648060000000    -0.00723106 
C670     C      0.654360000000     0.155280000000     0.579230000000    -0.0563257  
C671     C      0.617580000000     0.158390000000     0.875210000000    -0.0299581  
C672     C      0.722380000000     0.189880000000     0.777590000000    -0.0293829  
C673     C      0.693420000000     0.237630000000     0.751790000000    -0.00863412 
C674     C      0.731550000000     0.197420000000     0.751650000000    -0.00832605 
C675     C      0.658860000000     0.164620000000     0.804280000000    -0.0539808  
C676     C      0.680720000000     0.185950000000     0.848340000000    -0.0536562  
C677     C      0.680450000000     0.186480000000     0.804180000000     0.0617983  
C678     C      0.685490000000     0.228630000000     0.777730000000    -0.0293079  
C679     C      0.659170000000     0.164050000000     0.848440000000     0.0617357  
C680     C      0.656180000000     0.121580000000     0.874670000000    -0.0407504  
C681     C      0.648250000000     0.153410000000     0.826190000000    -0.0562896  
C682     C      0.649290000000     0.111790000000     0.900770000000     0.0356652  
C683     C      0.609150000000     0.150800000000     0.901310000000    -0.00677187 
C684     C      0.691350000000     0.197130000000     0.826430000000    -0.0563222  
C685     C      0.654680000000     0.487470000000     0.537710000000    -0.0300065  
C686     C      0.690960000000     0.373200000000     0.627680000000    -0.0293226  
C687     C      0.752550000000     0.386730000000     0.636560000000    -0.00903558 
C688     C      0.711000000000     0.349570000000     0.638470000000    -0.00859578 
C689     C      0.689880000000     0.409520000000     0.572670000000    -0.0538195  
C690     C      0.655500000000     0.453000000000     0.594460000000    -0.0533292  
C691     C      0.689940000000     0.412410000000     0.597980000000     0.0617175  
C692     C      0.730540000000     0.408700000000     0.626230000000    -0.0291372  
C693     C      0.655590000000     0.450230000000     0.569130000000     0.06148    
C694     C      0.613470000000     0.454040000000     0.542620000000    -0.040701   
C695     C      0.672810000000     0.428150000000     0.558300000000    -0.0560835  
C696     C      0.591980000000     0.476000000000     0.531090000000     0.0361465  
C697     C      0.635160000000     0.510830000000     0.525930000000    -0.00722817 
C698     C      0.672460000000     0.434250000000     0.608850000000    -0.0562522  
C699     C      0.905030000000     0.228570000000     0.625800000000    -0.0298268  
C700     C      0.946850000000     0.112820000000     0.539460000000    -0.0294167  
C701     C      0.993750000000     0.142830000000     0.513230000000    -0.00673067 
C702     C      0.955560000000     0.101680000000     0.514290000000    -0.00857777 
C703     C      0.916200000000     0.178170000000     0.559450000000    -0.053754   
C704     C      0.934920000000     0.162870000000     0.606100000000    -0.0534369  
C705     C      0.938650000000     0.157450000000     0.562280000000     0.0614804  
C706     C      0.982950000000     0.151690000000     0.538460000000    -0.029804   
C707     C      0.912530000000     0.183650000000     0.603270000000     0.0616872  
C708     C      0.868400000000     0.190070000000     0.627270000000    -0.0403764  
C709     C      0.903180000000     0.191220000000     0.579720000000    -0.0563213  
C710     C      0.857450000000     0.199730000000     0.652460000000     0.0343235  
C711     C      0.896330000000     0.240240000000     0.650800000000    -0.00741617 
C712     C      0.947940000000     0.149820000000     0.585830000000    -0.0561596  
C713     C      0.949730000000     0.481500000000     0.871240000000    -0.0295761  
C714     C      0.908220000000     0.369540000000     0.782860000000    -0.0293239  
C715     C      0.849410000000     0.389300000000     0.769710000000    -0.00796617 
C716     C      0.886920000000     0.347810000000     0.771340000000    -0.00812296 
C717     C      0.908340000000     0.406660000000     0.837300000000    -0.0539434  
C718     C      0.950360000000     0.444110000000     0.817040000000    -0.0536202  
C719     C      0.910810000000     0.408830000000     0.812040000000     0.0619253  
C720     C      0.872550000000     0.408970000000     0.781530000000    -0.0295941  
C721     C      0.947850000000     0.441970000000     0.842310000000     0.0620098  
C722     C      0.985770000000     0.442300000000     0.873140000000    -0.0396624  
C723     C      0.926650000000     0.423070000000     0.852400000000    -0.0564224  
C724     C      0.008460000000     0.462130000000     0.885750000000     0.0343906  
C725     C      0.970580000000     0.503370000000     0.883110000000    -0.00700488 
C726     C      0.932030000000     0.427680000000     0.801940000000    -0.0562749  
C727     C      0.868070000000     0.190300000000     0.783410000000    -0.0297753  
C728     C      0.974890000000     0.158120000000     0.879820000000    -0.0298714  
C729     C      0.945640000000     0.110910000000     0.906090000000    -0.00848553 
C730     C      0.984240000000     0.150810000000     0.905810000000    -0.00666167 
C731     C      0.911110000000     0.184070000000     0.853720000000    -0.0538544  
C732     C      0.931780000000     0.162420000000     0.809390000000    -0.053475   
C733     C      0.932530000000     0.162020000000     0.853590000000     0.0613733  
C734     C      0.937720000000     0.119810000000     0.880100000000    -0.0294453  
C735     C      0.910360000000     0.184480000000     0.809530000000     0.0614262  
C736     C      0.906910000000     0.226820000000     0.783070000000    -0.0404693  
C737     C      0.900080000000     0.195290000000     0.831930000000    -0.0561712  
C738     C      0.899330000000     0.236540000000     0.757040000000     0.0348456  
C739     C      0.858920000000     0.197860000000     0.757430000000    -0.0074212  
C740     C      0.942850000000     0.151240000000     0.831190000000    -0.0561441  
C741     C      0.730670000000     0.409070000000     0.782750000000    -0.0299384  
C742     C      0.622620000000     0.439990000000     0.879340000000    -0.0294618  
C743     C      0.653300000000     0.485590000000     0.906400000000    -0.00884971 
C744     C      0.613390000000     0.446990000000     0.905470000000    -0.00866704 
C745     C      0.686600000000     0.413600000000     0.852920000000    -0.0538265  
C746     C      0.666540000000     0.436600000000     0.808880000000    -0.053259   
C747     C      0.665100000000     0.435580000000     0.853070000000     0.0614158  
C748     C      0.660860000000     0.477190000000     0.880240000000    -0.0291869  
C749     C      0.688080000000     0.414650000000     0.808730000000     0.0612467  
C750     C      0.691360000000     0.373110000000     0.781460000000    -0.0404576  
C751     C      0.698010000000     0.403130000000     0.831000000000    -0.0560822  
C752     C      0.698960000000     0.364120000000     0.755260000000     0.0349179  
C753     C      0.740030000000     0.402060000000     0.756660000000    -0.0073948  
C754     C      0.655090000000     0.447040000000     0.830810000000    -0.05611    
C755     C      0.906320000000     0.364650000000     0.624380000000    -0.0301057  
C756     C      0.941660000000     0.476620000000     0.531890000000    -0.0291537  
C757     C      0.002660000000     0.461750000000     0.521680000000    -0.0118283  
C758     C      0.961670000000     0.499700000000     0.520220000000    -0.00904494 
C759     C      0.941890000000     0.441390000000     0.587500000000    -0.0535959  
C760     C      0.906020000000     0.398150000000     0.567100000000    -0.0534273  
C761     C      0.940990000000     0.438100000000     0.562220000000     0.061486   
C762     C      0.980600000000     0.440500000000     0.532940000000    -0.0274105  
C763     C      0.907080000000     0.401320000000     0.592390000000     0.0614367  
C764     C      0.865630000000     0.398600000000     0.619800000000    -0.0409183  
C765     C      0.925040000000     0.423280000000     0.602520000000    -0.0560808  
C766     C      0.843850000000     0.376990000000     0.631400000000     0.0364169  
C767     C      0.886690000000     0.341570000000     0.636500000000    -0.00727664 
C768     C      0.922750000000     0.416370000000     0.552070000000    -0.056239   
C769     C      0.001780000000     0.000080000000     0.990060000000     0.375702   
C770     C      0.602530000000     0.603040000000     0.984680000000     0.389986   
C771     C      0.596160000000     0.007760000000     0.994700000000     0.380073   
C772     C      0.999990000000     0.597800000000     0.989110000000     0.388113   
C773     C      0.993560000000     0.603400000000     0.426440000000     0.39457    
C774     C      0.605740000000     0.994200000000     0.426980000000     0.394998   
C775     C      0.005620000000     0.000900000000     0.417130000000     0.38812    
C776     C      0.602880000000     0.603830000000     0.423170000000     0.396808   
C777     C      0.846650000000     0.843580000000     0.166820000000     0.384311   
C778     C      0.747700000000     0.749490000000     0.171870000000     0.391031   
C779     C      0.850380000000     0.746960000000     0.173750000000     0.388848   
C780     C      0.751210000000     0.848810000000     0.168570000000     0.385195   
C781     C      0.746050000000     0.855480000000     0.233940000000     0.393392   
C782     C      0.852320000000     0.744830000000     0.235510000000     0.394444   
C783     C      0.848920000000     0.849210000000     0.239660000000     0.39422    
C784     C      0.741860000000     0.745440000000     0.232420000000     0.395402   
C785     C      0.731540000000     0.696100000000     0.122520000000    -0.0298285  
C786     C      0.619390000000     0.658320000000     0.032070000000    -0.0292397  
C787     C      0.649390000000     0.611420000000     0.005950000000    -0.00873729 
C788     C      0.608850000000     0.649770000000     0.006710000000    -0.00858477 
C789     C      0.684360000000     0.687280000000     0.054320000000    -0.0539394  
C790     C      0.666650000000     0.667540000000     0.100110000000    -0.0536779  
C791     C      0.663170000000     0.665140000000     0.056120000000     0.0618351  
C792     C      0.658030000000     0.621660000000     0.031360000000    -0.0290685  
C793     C      0.687830000000     0.689670000000     0.098300000000     0.0620059  
C794     C      0.693410000000     0.733180000000     0.123080000000    -0.0405095  
C795     C      0.696670000000     0.699520000000     0.075210000000    -0.0564416  
C796     C      0.701700000000     0.743430000000     0.148750000000     0.0348489  
C797     C      0.741860000000     0.704080000000     0.148060000000    -0.00724539 
C798     C      0.654360000000     0.655280000000     0.079230000000    -0.056285   
C799     C      0.617580000000     0.658390000000     0.375210000000    -0.029981   
C800     C      0.722380000000     0.689880000000     0.277590000000    -0.029384   
C801     C      0.693420000000     0.737630000000     0.251790000000    -0.00859658 
C802     C      0.731550000000     0.697420000000     0.251650000000    -0.0083353  
C803     C      0.658860000000     0.664620000000     0.304280000000    -0.0539173  
C804     C      0.680720000000     0.685950000000     0.348340000000    -0.0536235  
C805     C      0.680450000000     0.686480000000     0.304180000000     0.0618284  
C806     C      0.685490000000     0.728630000000     0.277730000000    -0.0293223  
C807     C      0.659170000000     0.664050000000     0.348430000000     0.0617446  
C808     C      0.656180000000     0.621580000000     0.374670000000    -0.0407694  
C809     C      0.648250000000     0.653410000000     0.326190000000    -0.0562598  
C810     C      0.649290000000     0.611790000000     0.400770000000     0.0356368  
C811     C      0.609150000000     0.650800000000     0.401310000000    -0.00675051 
C812     C      0.691350000000     0.697130000000     0.326430000000    -0.0563127  
C813     C      0.654680000000     0.987470000000     0.037710000000    -0.0275763  
C814     C      0.690960000000     0.873200000000     0.127680000000    -0.0293402  
C815     C      0.752550000000     0.886730000000     0.136560000000    -0.00901892 
C816     C      0.711000000000     0.849570000000     0.138470000000    -0.008589   
C817     C      0.689880000000     0.909520000000     0.072670000000    -0.0537469  
C818     C      0.655500000000     0.953000000000     0.094460000000    -0.0532572  
C819     C      0.689940000000     0.912410000000     0.097980000000     0.0617388  
C820     C      0.730540000000     0.908700000000     0.126230000000    -0.0291694  
C821     C      0.655590000000     0.950230000000     0.069130000000     0.0616045  
C822     C      0.613470000000     0.954040000000     0.042620000000    -0.0403482  
C823     C      0.672810000000     0.928150000000     0.058300000000    -0.056093   
C824     C      0.591980000000     0.976000000000     0.031090000000     0.0356327  
C825     C      0.635160000000     0.010830000000     0.025930000000    -0.0111355  
C826     C      0.672460000000     0.934250000000     0.108850000000    -0.0561584  
C827     C      0.905030000000     0.728570000000     0.125800000000    -0.0298275  
C828     C      0.946850000000     0.612820000000     0.039460000000    -0.0294462  
C829     C      0.993750000000     0.642830000000     0.013230000000    -0.00672807 
C830     C      0.955560000000     0.601680000000     0.014290000000    -0.0085514  
C831     C      0.916200000000     0.678170000000     0.059450000000    -0.0537288  
C832     C      0.934920000000     0.662870000000     0.106110000000    -0.0534516  
C833     C      0.938650000000     0.657450000000     0.062280000000     0.0615193  
C834     C      0.982950000000     0.651690000000     0.038460000000    -0.0298189  
C835     C      0.912530000000     0.683650000000     0.103270000000     0.0617472  
C836     C      0.868400000000     0.690070000000     0.127270000000    -0.0403657  
C837     C      0.903180000000     0.691220000000     0.079720000000    -0.0563144  
C838     C      0.857450000000     0.699730000000     0.152460000000     0.0342567  
C839     C      0.896330000000     0.740240000000     0.150800000000    -0.00742454 
C840     C      0.947940000000     0.649810000000     0.085830000000    -0.0561375  
C841     C      0.949730000000     0.981500000000     0.371240000000    -0.0271763  
C842     C      0.908220000000     0.869540000000     0.282860000000    -0.0293409  
C843     C      0.849410000000     0.889300000000     0.269710000000    -0.00795024 
C844     C      0.886920000000     0.847810000000     0.271340000000    -0.00811522 
C845     C      0.908340000000     0.906660000000     0.337310000000    -0.0538668  
C846     C      0.950360000000     0.944100000000     0.317040000000    -0.0535028  
C847     C      0.910810000000     0.908830000000     0.312040000000     0.061929   
C848     C      0.872550000000     0.908970000000     0.281530000000    -0.029625   
C849     C      0.947850000000     0.941970000000     0.342310000000     0.0620911  
C850     C      0.985770000000     0.942300000000     0.373140000000    -0.0393765  
C851     C      0.926650000000     0.923070000000     0.352400000000    -0.0564019  
C852     C      0.008460000000     0.962130000000     0.385750000000     0.0339801  
C853     C      0.970580000000     0.003360000000     0.383110000000    -0.010807   
C854     C      0.932030000000     0.927680000000     0.301940000000    -0.0561909  
C855     C      0.868070000000     0.690300000000     0.283410000000    -0.0298328  
C856     C      0.974890000000     0.658120000000     0.379820000000    -0.0298853  
C857     C      0.945640000000     0.610910000000     0.406090000000    -0.00848716 
C858     C      0.984240000000     0.650810000000     0.405810000000    -0.00665939 
C859     C      0.911110000000     0.684070000000     0.353720000000    -0.0538344  
C860     C      0.931780000000     0.662420000000     0.309390000000    -0.053417   
C861     C      0.932530000000     0.662020000000     0.353590000000     0.0614059  
C862     C      0.937720000000     0.619810000000     0.380100000000    -0.0294631  
C863     C      0.910360000000     0.684480000000     0.309530000000     0.0614564  
C864     C      0.906910000000     0.726820000000     0.283070000000    -0.0404671  
C865     C      0.900080000000     0.695290000000     0.331930000000    -0.0561534  
C866     C      0.899330000000     0.736540000000     0.257040000000     0.0348177  
C867     C      0.858920000000     0.697870000000     0.257430000000    -0.00728378 
C868     C      0.942850000000     0.651240000000     0.331190000000    -0.0560996  
C869     C      0.730670000000     0.909070000000     0.282750000000    -0.029936   
C870     C      0.622620000000     0.939990000000     0.379340000000    -0.0295584  
C871     C      0.653300000000     0.985590000000     0.406400000000    -0.00587757 
C872     C      0.613390000000     0.946990000000     0.405470000000    -0.00850727 
C873     C      0.686600000000     0.913600000000     0.352920000000    -0.0537828  
C874     C      0.666540000000     0.936600000000     0.308880000000    -0.0531654  
C875     C      0.665100000000     0.935580000000     0.353070000000     0.0614691  
C876     C      0.660860000000     0.977190000000     0.380250000000    -0.0300252  
C877     C      0.688080000000     0.914650000000     0.308730000000     0.0612949  
C878     C      0.691360000000     0.873110000000     0.281460000000    -0.0404173  
C879     C      0.698010000000     0.903130000000     0.331000000000    -0.0560477  
C880     C      0.698960000000     0.864120000000     0.255270000000     0.0348546  
C881     C      0.740030000000     0.902060000000     0.256660000000    -0.00740931 
C882     C      0.655090000000     0.947040000000     0.330810000000    -0.0560391  
C883     C      0.906320000000     0.864650000000     0.124380000000    -0.0301182  
C884     C      0.941660000000     0.976620000000     0.031880000000    -0.0306916  
C885     C      0.002660000000     0.961750000000     0.021680000000    -0.0117933  
C886     C      0.961670000000     0.999700000000     0.020220000000    -0.00365436 
C887     C      0.941890000000     0.941390000000     0.087500000000    -0.0535181  
C888     C      0.906020000000     0.898150000000     0.067100000000    -0.0533735  
C889     C      0.940990000000     0.938100000000     0.062220000000     0.0615702  
C890     C      0.980600000000     0.940490000000     0.032940000000    -0.0275615  
C891     C      0.907080000000     0.901320000000     0.092390000000     0.0614595  
C892     C      0.865630000000     0.898600000000     0.119800000000    -0.0409456  
C893     C      0.925040000000     0.923280000000     0.102520000000    -0.0559994  
C894     C      0.843850000000     0.876990000000     0.131410000000     0.0364325  
C895     C      0.886690000000     0.841570000000     0.136500000000    -0.0072898  
C896     C      0.922750000000     0.916370000000     0.052070000000    -0.0562125  
C897     C      0.001780000000     0.000080000000     0.490060000000     0.37569    
C898     C      0.602530000000     0.603040000000     0.484680000000     0.389982   
C899     C      0.596160000000     0.007760000000     0.494700000000     0.38006    
C900     C      0.999990000000     0.597800000000     0.489110000000     0.388099   
C901     C      0.993560000000     0.603400000000     0.926430000000     0.394489   
C902     C      0.605740000000     0.994200000000     0.926980000000     0.394999   
C903     C      0.005620000000     0.000900000000     0.917130000000     0.388121   
C904     C      0.602880000000     0.603830000000     0.923170000000     0.396749   
C905     C      0.846650000000     0.843580000000     0.666820000000     0.38431    
C906     C      0.747700000000     0.749490000000     0.671870000000     0.391031   
C907     C      0.850380000000     0.746960000000     0.673750000000     0.388848   
C908     C      0.751210000000     0.848810000000     0.668570000000     0.385195   
C909     C      0.746050000000     0.855480000000     0.733940000000     0.393392   
C910     C      0.852320000000     0.744830000000     0.735510000000     0.394444   
C911     C      0.848920000000     0.849210000000     0.739660000000     0.39422    
C912     C      0.741860000000     0.745440000000     0.732420000000     0.395402   
C913     C      0.731540000000     0.696100000000     0.622520000000    -0.0298297  
C914     C      0.619390000000     0.658320000000     0.532070000000    -0.0292455  
C915     C      0.649390000000     0.611420000000     0.505950000000    -0.0087159  
C916     C      0.608850000000     0.649770000000     0.506710000000    -0.00856299 
C917     C      0.684360000000     0.687280000000     0.554320000000    -0.0539389  
C918     C      0.666650000000     0.667540000000     0.600110000000    -0.0536781  
C919     C      0.663170000000     0.665140000000     0.556120000000     0.0618355  
C920     C      0.658030000000     0.621660000000     0.531360000000    -0.0290741  
C921     C      0.687830000000     0.689670000000     0.598300000000     0.0620068  
C922     C      0.693410000000     0.733180000000     0.623070000000    -0.0405505  
C923     C      0.696670000000     0.699520000000     0.575210000000    -0.0564409  
C924     C      0.701700000000     0.743430000000     0.648750000000     0.0348527  
C925     C      0.741860000000     0.704080000000     0.648060000000    -0.00724471 
C926     C      0.654360000000     0.655280000000     0.579230000000    -0.0562848  
C927     C      0.617580000000     0.658390000000     0.875210000000    -0.0299784  
C928     C      0.722380000000     0.689880000000     0.777590000000    -0.0293841  
C929     C      0.693420000000     0.737630000000     0.751790000000    -0.00859661 
C930     C      0.731550000000     0.697420000000     0.751650000000    -0.0083353  
C931     C      0.658860000000     0.664620000000     0.804280000000    -0.0539213  
C932     C      0.680720000000     0.685950000000     0.848340000000    -0.0536383  
C933     C      0.680450000000     0.686480000000     0.804180000000     0.0618276  
C934     C      0.685490000000     0.728630000000     0.777730000000    -0.0293224  
C935     C      0.659170000000     0.664050000000     0.848440000000     0.0617665  
C936     C      0.656180000000     0.621580000000     0.874670000000    -0.0407663  
C937     C      0.648250000000     0.653410000000     0.826190000000    -0.0562452  
C938     C      0.649290000000     0.611790000000     0.900770000000     0.0356313  
C939     C      0.609150000000     0.650800000000     0.901310000000    -0.00675249 
C940     C      0.691350000000     0.697130000000     0.826430000000    -0.0563052  
C941     C      0.654680000000     0.987470000000     0.537710000000    -0.0275746  
C942     C      0.690960000000     0.873200000000     0.627680000000    -0.0293402  
C943     C      0.752550000000     0.886730000000     0.636560000000    -0.00901895 
C944     C      0.711000000000     0.849570000000     0.638470000000    -0.00858901 
C945     C      0.689880000000     0.909520000000     0.572670000000    -0.0537465  
C946     C      0.655500000000     0.953000000000     0.594460000000    -0.0532572  
C947     C      0.689940000000     0.912410000000     0.597980000000     0.0617389  
C948     C      0.730540000000     0.908700000000     0.626230000000    -0.0291694  
C949     C      0.655590000000     0.950230000000     0.569130000000     0.0616047  
C950     C      0.613470000000     0.954040000000     0.542620000000    -0.040348   
C951     C      0.672810000000     0.928150000000     0.558300000000    -0.0560928  
C952     C      0.591980000000     0.976000000000     0.531090000000     0.0356322  
C953     C      0.635160000000     0.010830000000     0.525930000000    -0.0111383  
C954     C      0.672460000000     0.934250000000     0.608850000000    -0.0561583  
C955     C      0.905030000000     0.728570000000     0.625800000000    -0.0298282  
C956     C      0.946850000000     0.612820000000     0.539460000000    -0.0294458  
C957     C      0.993750000000     0.642830000000     0.513230000000    -0.00671379 
C958     C      0.955560000000     0.601680000000     0.514290000000    -0.00855156 
C959     C      0.916200000000     0.678170000000     0.559450000000    -0.0537426  
C960     C      0.934920000000     0.662870000000     0.606100000000    -0.0533629  
C961     C      0.938650000000     0.657450000000     0.562280000000     0.061533   
C962     C      0.982950000000     0.651690000000     0.538460000000    -0.0298224  
C963     C      0.912530000000     0.683650000000     0.603270000000     0.0617068  
C964     C      0.868400000000     0.690070000000     0.627270000000    -0.0403664  
C965     C      0.903180000000     0.691220000000     0.579720000000    -0.056293   
C966     C      0.857450000000     0.699730000000     0.652460000000     0.0342564  
C967     C      0.896330000000     0.740240000000     0.650800000000    -0.00742451 
C968     C      0.947940000000     0.649810000000     0.585830000000    -0.0561641  
C969     C      0.949730000000     0.981500000000     0.871240000000    -0.0271765  
C970     C      0.908220000000     0.869540000000     0.782860000000    -0.0293404  
C971     C      0.849410000000     0.889300000000     0.769710000000    -0.0079503  
C972     C      0.886920000000     0.847810000000     0.771340000000    -0.00811527 
C973     C      0.908340000000     0.906660000000     0.837300000000    -0.0538776  
C974     C      0.950360000000     0.944100000000     0.817040000000    -0.0534985  
C975     C      0.910810000000     0.908830000000     0.812040000000     0.0619597  
C976     C      0.872550000000     0.908970000000     0.781530000000    -0.0296245  
C977     C      0.947850000000     0.941970000000     0.842310000000     0.0620941  
C978     C      0.985770000000     0.942300000000     0.873140000000    -0.0393768  
C979     C      0.926650000000     0.923070000000     0.852400000000    -0.0564122  
C980     C      0.008460000000     0.962130000000     0.885750000000     0.0339808  
C981     C      0.970580000000     0.003360000000     0.883110000000    -0.0108066  
C982     C      0.932030000000     0.927680000000     0.801940000000    -0.0562031  
C983     C      0.868070000000     0.690300000000     0.783410000000    -0.0298249  
C984     C      0.974890000000     0.658120000000     0.879820000000    -0.0298881  
C985     C      0.945640000000     0.610910000000     0.906090000000    -0.00847887 
C986     C      0.984240000000     0.650810000000     0.905810000000    -0.00665141 
C987     C      0.911110000000     0.684070000000     0.853720000000    -0.0538341  
C988     C      0.931780000000     0.662420000000     0.809390000000    -0.0534173  
C989     C      0.932530000000     0.662020000000     0.853590000000     0.0614058  
C990     C      0.937720000000     0.619810000000     0.880100000000    -0.0294659  
C991     C      0.910360000000     0.684480000000     0.809530000000     0.0614565  
C992     C      0.906910000000     0.726820000000     0.783070000000    -0.0404665  
C993     C      0.900080000000     0.695290000000     0.831930000000    -0.0561534  
C994     C      0.899330000000     0.736540000000     0.757040000000     0.0348167  
C995     C      0.858920000000     0.697870000000     0.757430000000    -0.00731577 
C996     C      0.942850000000     0.651240000000     0.831190000000    -0.0560995  
C997     C      0.730670000000     0.909070000000     0.782750000000    -0.0299372  
C998     C      0.622620000000     0.939990000000     0.879340000000    -0.0295594  
C999     C      0.653300000000     0.985590000000     0.906400000000    -0.0058745  
C1000    C      0.613390000000     0.946990000000     0.905470000000    -0.00850686 
C1001    C      0.686600000000     0.913600000000     0.852920000000    -0.0537869  
C1002    C      0.666540000000     0.936600000000     0.808880000000    -0.053166   
C1003    C      0.665100000000     0.935580000000     0.853070000000     0.061471   
C1004    C      0.660860000000     0.977190000000     0.880240000000    -0.0300663  
C1005    C      0.688080000000     0.914650000000     0.808730000000     0.0612969  
C1006    C      0.691360000000     0.873110000000     0.781460000000    -0.0404467  
C1007    C      0.698010000000     0.903130000000     0.831000000000    -0.0560451  
C1008    C      0.698960000000     0.864120000000     0.755260000000     0.0348729  
C1009    C      0.740030000000     0.902060000000     0.756660000000    -0.00740784 
C1010    C      0.655090000000     0.947040000000     0.830810000000    -0.056039   
C1011    C      0.906320000000     0.864650000000     0.624380000000    -0.0301174  
C1012    C      0.941660000000     0.976620000000     0.531890000000    -0.0306391  
C1013    C      0.002660000000     0.961750000000     0.521680000000    -0.0117964  
C1014    C      0.961670000000     0.999700000000     0.520220000000    -0.0036787  
C1015    C      0.941890000000     0.941390000000     0.587500000000    -0.0535187  
C1016    C      0.906020000000     0.898150000000     0.567100000000    -0.0533727  
C1017    C      0.940990000000     0.938100000000     0.562220000000     0.0615716  
C1018    C      0.980600000000     0.940490000000     0.532940000000    -0.027561   
C1019    C      0.907080000000     0.901320000000     0.592390000000     0.0614594  
C1020    C      0.865630000000     0.898600000000     0.619800000000    -0.0409477  
C1021    C      0.925040000000     0.923280000000     0.602520000000    -0.055999   
C1022    C      0.843850000000     0.876990000000     0.631400000000     0.0364198  
C1023    C      0.886690000000     0.841570000000     0.636500000000    -0.00729172 
C1024    C      0.922750000000     0.916370000000     0.552070000000    -0.056213   
Co1      Co     0.507220000000     0.048910000000     0.953940000000     0.835361   
Co2      Co     0.094030000000     0.550370000000     0.453500000000     0.838928   
Co3      Co     0.551430000000     0.506590000000     0.955250000000     0.831965   
Co4      Co     0.549640000000     0.092970000000     0.453600000000     0.83315    
Co5      Co     0.299480000000     0.342760000000     0.204620000000     0.829966   
Co6      Co     0.298200000000     0.256100000000     0.206040000000     0.831708   
Co7      Co     0.342090000000     0.298560000000     0.205970000000     0.838086   
Co8      Co     0.255390000000     0.300430000000     0.205220000000     0.837311   
Co9      Co     0.507220000000     0.048910000000     0.453940000000     0.835363   
Co10     Co     0.094030000000     0.550370000000     0.953500000000     0.838999   
Co11     Co     0.551430000000     0.506590000000     0.455250000000     0.83197    
Co12     Co     0.549640000000     0.092970000000     0.953600000000     0.833143   
Co13     Co     0.299480000000     0.342760000000     0.704620000000     0.829966   
Co14     Co     0.298200000000     0.256100000000     0.706040000000     0.831708   
Co15     Co     0.342090000000     0.298560000000     0.705970000000     0.838086   
Co16     Co     0.255390000000     0.300430000000     0.705220000000     0.837311   
Co17     Co     0.507220000000     0.548910000000     0.953940000000     0.835863   
Co18     Co     0.094030000000     0.050370000000     0.453500000000     0.838772   
Co19     Co     0.551430000000     0.006590000000     0.955250000000     0.826558   
Co20     Co     0.549640000000     0.592970000000     0.453600000000     0.833231   
Co21     Co     0.299480000000     0.842760000000     0.204620000000     0.829977   
Co22     Co     0.298200000000     0.756100000000     0.206040000000     0.831632   
Co23     Co     0.342090000000     0.798560000000     0.205970000000     0.838071   
Co24     Co     0.255390000000     0.800430000000     0.205220000000     0.837274   
Co25     Co     0.507220000000     0.548910000000     0.453940000000     0.835866   
Co26     Co     0.094030000000     0.050370000000     0.953500000000     0.838843   
Co27     Co     0.551430000000     0.006590000000     0.455250000000     0.826562   
Co28     Co     0.549640000000     0.592970000000     0.953600000000     0.833223   
Co29     Co     0.299480000000     0.842760000000     0.704620000000     0.829976   
Co30     Co     0.298200000000     0.756100000000     0.706040000000     0.831632   
Co31     Co     0.342090000000     0.798560000000     0.705970000000     0.838071   
Co32     Co     0.255390000000     0.800430000000     0.705220000000     0.837274   
Co33     Co     0.007220000000     0.048910000000     0.953940000000     0.831934   
Co34     Co     0.594030000000     0.550370000000     0.453500000000     0.839      
Co35     Co     0.051430000000     0.506590000000     0.955250000000     0.831612   
Co36     Co     0.049640000000     0.092970000000     0.453600000000     0.833303   
Co37     Co     0.799480000000     0.342760000000     0.204620000000     0.829956   
Co38     Co     0.798200000000     0.256100000000     0.206040000000     0.831692   
Co39     Co     0.842090000000     0.298560000000     0.205970000000     0.838086   
Co40     Co     0.755390000000     0.300430000000     0.205220000000     0.837225   
Co41     Co     0.007220000000     0.048910000000     0.453940000000     0.831936   
Co42     Co     0.594030000000     0.550370000000     0.953500000000     0.839071   
Co43     Co     0.051430000000     0.506590000000     0.455250000000     0.831617   
Co44     Co     0.049640000000     0.092970000000     0.953600000000     0.833295   
Co45     Co     0.799480000000     0.342760000000     0.704620000000     0.829956   
Co46     Co     0.798200000000     0.256100000000     0.706040000000     0.831692   
Co47     Co     0.842090000000     0.298560000000     0.705970000000     0.838086   
Co48     Co     0.755390000000     0.300430000000     0.705220000000     0.837225   
Co49     Co     0.007220000000     0.548910000000     0.953940000000     0.832441   
Co50     Co     0.594030000000     0.050370000000     0.453500000000     0.838845   
Co51     Co     0.051430000000     0.006590000000     0.955250000000     0.826202   
Co52     Co     0.049640000000     0.592970000000     0.453600000000     0.833383   
Co53     Co     0.799480000000     0.842760000000     0.204620000000     0.829967   
Co54     Co     0.798200000000     0.756100000000     0.206040000000     0.831616   
Co55     Co     0.842090000000     0.798560000000     0.205970000000     0.838071   
Co56     Co     0.755390000000     0.800430000000     0.205220000000     0.837188   
Co57     Co     0.007220000000     0.548910000000     0.453940000000     0.832443   
Co58     Co     0.594030000000     0.050370000000     0.953500000000     0.838916   
Co59     Co     0.051430000000     0.006590000000     0.455250000000     0.826207   
Co60     Co     0.049640000000     0.592970000000     0.953600000000     0.833375   
Co61     Co     0.799480000000     0.842760000000     0.704620000000     0.829967   
Co62     Co     0.798200000000     0.756100000000     0.706040000000     0.831616   
Co63     Co     0.842090000000     0.798560000000     0.705970000000     0.838071   
Co64     Co     0.755390000000     0.800430000000     0.705220000000     0.837188   
H1       H      0.138050000000     0.138160000000     0.081100000000     0.0410022  
H2       H      0.236240000000     0.172410000000     0.119380000000     0.0350633  
H3       H      0.169720000000     0.237570000000     0.119520000000     0.0396662  
H4       H      0.164460000000     0.121680000000     0.992530000000     0.0423545  
H5       H      0.232990000000     0.187650000000     0.161070000000     0.0433035  
H6       H      0.114510000000     0.182010000000     0.034960000000     0.0348172  
H7       H      0.182010000000     0.117960000000     0.033740000000     0.034792   
H8       H      0.084520000000     0.151620000000     0.006250000000     0.0459395  
H9       H      0.200200000000     0.267800000000     0.148880000000     0.0387625  
H10      H      0.159680000000     0.159790000000     0.117780000000     0.0458988  
H11      H      0.266200000000     0.202350000000     0.148550000000     0.0456053  
H12      H      0.191340000000     0.195020000000     0.036650000000     0.0451579  
H13      H      0.244240000000     0.209090000000     0.108980000000     0.0366768  
H14      H      0.152600000000     0.087240000000     0.004960000000     0.046825   
H15      H      0.106950000000     0.145430000000     0.045840000000     0.0372404  
H16      H      0.146180000000     0.108170000000     0.045090000000     0.0371812  
H17      H      0.213020000000     0.216600000000     0.073360000000     0.0408768  
H18      H      0.206090000000     0.246390000000     0.109660000000     0.0388805  
H19      H      0.117840000000     0.165750000000     0.993380000000     0.0415405  
H20      H      0.208120000000     0.213940000000     0.326850000000     0.0412378  
H21      H      0.112550000000     0.181990000000     0.372030000000     0.0351835  
H22      H      0.179760000000     0.117490000000     0.370440000000     0.0397887  
H23      H      0.177760000000     0.226940000000     0.239080000000     0.0413734  
H24      H      0.119520000000     0.167040000000     0.413700000000     0.0419039  
H25      H      0.226060000000     0.165990000000     0.280550000000     0.0351102  
H26      H      0.161830000000     0.233420000000     0.280760000000     0.0353555  
H27      H      0.255470000000     0.193270000000     0.249760000000     0.0466008  
H28      H      0.151550000000     0.087490000000     0.401270000000     0.0382994  
H29      H      0.189340000000     0.194270000000     0.365320000000     0.0457678  
H30      H      0.084980000000     0.153200000000     0.403150000000     0.0455613  
H31      H      0.150360000000     0.156180000000     0.287300000000     0.0450362  
H32      H      0.103970000000     0.145080000000     0.362520000000     0.0376921  
H33      H      0.190590000000     0.261770000000     0.250050000000     0.0470594  
H34      H      0.236510000000     0.202250000000     0.290540000000     0.0385093  
H35      H      0.198550000000     0.242080000000     0.290700000000     0.0383109  
H36      H      0.131660000000     0.136430000000     0.325770000000     0.0409941  
H37      H      0.143100000000     0.107810000000     0.361930000000     0.0397964  
H38      H      0.219910000000     0.182400000000     0.238970000000     0.0404809  
H39      H      0.172000000000     0.436820000000     0.128380000000     0.0419502  
H40      H      0.172920000000     0.498750000000     0.047380000000     0.0351522  
H41      H      0.101590000000     0.439600000000     0.055690000000     0.0395946  
H42      H      0.265180000000     0.377350000000     0.121190000000     0.0411614  
H43      H      0.129170000000     0.527390000000     0.039910000000     0.0400711  
H44      H      0.173540000000     0.362140000000     0.116850000000     0.0350767  
H45      H      0.242600000000     0.424390000000     0.114370000000     0.03516    
H46      H      0.198140000000     0.336640000000     0.151890000000     0.0477213  
H47      H      0.076080000000     0.463120000000     0.020100000000     0.0388026  
H48      H      0.142180000000     0.469730000000     0.103050000000     0.0457903  
H49      H      0.148180000000     0.522310000000     0.011740000000     0.0463881  
H50      H      0.203140000000     0.392740000000     0.064080000000     0.0449759  
H51      H      0.164360000000     0.473480000000     0.023190000000     0.0386081  
H52      H      0.268190000000     0.398710000000     0.148480000000     0.0475986  
H53      H      0.180160000000     0.385580000000     0.142660000000     0.039434   
H54      H      0.220430000000     0.421310000000     0.141390000000     0.0391386  
H55      H      0.173040000000     0.425310000000     0.038790000000     0.0413943  
H56      H      0.122320000000     0.439560000000     0.028050000000     0.0411707  
H57      H      0.217740000000     0.334320000000     0.123720000000     0.0390518  
H58      H      0.465240000000     0.133860000000     0.088500000000     0.0410106  
H59      H      0.428720000000     0.233400000000     0.122860000000     0.0353195  
H60      H      0.364360000000     0.166140000000     0.124600000000     0.0395714  
H61      H      0.484540000000     0.158390000000     0.999660000000     0.0421722  
H62      H      0.412550000000     0.232330000000     0.164390000000     0.0443829  
H63      H      0.423260000000     0.107610000000     0.042460000000     0.0346339  
H64      H      0.486500000000     0.175720000000     0.040730000000     0.0348932  
H65      H      0.454980000000     0.077270000000     0.014530000000     0.0450756  
H66      H      0.333110000000     0.197960000000     0.152300000000     0.0382504  
H67      H      0.442320000000     0.156850000000     0.124120000000     0.0461619  
H68      H      0.397790000000     0.264610000000     0.150360000000     0.0460547  
H69      H      0.408850000000     0.184240000000     0.041440000000     0.0450749  
H70      H      0.392230000000     0.240350000000     0.111590000000     0.0368339  
H71      H      0.518040000000     0.145230000000     0.012780000000     0.0452376  
H72      H      0.459910000000     0.101020000000     0.053500000000     0.0366211  
H73      H      0.496200000000     0.140090000000     0.052490000000     0.0367546  
H74      H      0.385920000000     0.207210000000     0.077040000000     0.0408733  
H75      H      0.355360000000     0.201790000000     0.113170000000     0.0388343  
H76      H      0.438870000000     0.109160000000     0.000920000000     0.0421093  
H77      H      0.434430000000     0.429650000000     0.282460000000     0.0414703  
H78      H      0.434650000000     0.493860000000     0.359040000000     0.034976   
H79      H      0.497080000000     0.424830000000     0.362490000000     0.0398532  
H80      H      0.333550000000     0.382150000000     0.283870000000     0.0396444  
H81      H      0.480680000000     0.517150000000     0.368700000000     0.0410005  
H82      H      0.423540000000     0.357090000000     0.294770000000     0.0349855  
H83      H      0.361090000000     0.425980000000     0.292520000000     0.0347744  
H84      H      0.399570000000     0.333240000000     0.258970000000     0.046488   
H85      H      0.519490000000     0.448660000000     0.399910000000     0.0374617  
H86      H      0.466520000000     0.458630000000     0.309070000000     0.0458356  
H87      H      0.457420000000     0.518170000000     0.394910000000     0.04597    
H88      H      0.392150000000     0.392170000000     0.345280000000     0.0447312  
H89      H      0.436300000000     0.470650000000     0.385560000000     0.0381966  
H90      H      0.337070000000     0.402530000000     0.256160000000     0.0450338  
H91      H      0.421340000000     0.380370000000     0.268330000000     0.038393   
H92      H      0.385360000000     0.420300000000     0.267090000000     0.0379751  
H93      H      0.424200000000     0.421140000000     0.371870000000     0.0411274  
H94      H      0.472610000000     0.431000000000     0.387390000000     0.0399403  
H95      H      0.377410000000     0.333770000000     0.285870000000     0.0397503  
H96      H      0.459470000000     0.134300000000     0.330560000000     0.0413197  
H97      H      0.362950000000     0.166750000000     0.286750000000     0.0353511  
H98      H      0.430640000000     0.230780000000     0.286820000000     0.039871   
H99      H      0.429920000000     0.121590000000     0.418750000000     0.0396914  
H100     H      0.368790000000     0.181490000000     0.244880000000     0.043233   
H101     H      0.478860000000     0.181920000000     0.376620000000     0.0350351  
H102     H      0.414020000000     0.115140000000     0.377120000000     0.0348292  
H103     H      0.508280000000     0.154480000000     0.407430000000     0.046237   
H104     H      0.401770000000     0.260820000000     0.256400000000     0.0387566  
H105     H      0.439950000000     0.153960000000     0.292310000000     0.045988   
H106     H      0.334680000000     0.195640000000     0.256060000000     0.0460173  
H107     H      0.403030000000     0.192630000000     0.370800000000     0.0448328  
H108     H      0.354900000000     0.203740000000     0.296320000000     0.0376527  
H109     H      0.442840000000     0.086760000000     0.407860000000     0.0458376  
H110     H      0.488730000000     0.145420000000     0.366870000000     0.0384993  
H111     H      0.450650000000     0.106200000000     0.367150000000     0.0380478  
H112     H      0.383610000000     0.212390000000     0.332570000000     0.0409231  
H113     H      0.394310000000     0.240770000000     0.296000000000     0.0396246  
H114     H      0.473130000000     0.166320000000     0.418400000000     0.0398533  
H115     H      0.138490000000     0.464030000000     0.330390000000     0.0418469  
H116     H      0.236050000000     0.432450000000     0.286560000000     0.0351929  
H117     H      0.167570000000     0.369320000000     0.285030000000     0.0400404  
H118     H      0.168720000000     0.474040000000     0.418790000000     0.0394702  
H119     H      0.230630000000     0.418990000000     0.244370000000     0.0418494  
H120     H      0.117990000000     0.416390000000     0.375750000000     0.0353237  
H121     H      0.184660000000     0.481320000000     0.377280000000     0.0351575  
H122     H      0.089220000000     0.444240000000     0.406940000000     0.0474228  
H123     H      0.196040000000     0.339930000000     0.254100000000     0.0391299  
H124     H      0.158580000000     0.445580000000     0.291910000000     0.0459805  
H125     H      0.264320000000     0.403820000000     0.255520000000     0.0456259  
H126     H      0.194520000000     0.404570000000     0.369890000000     0.0447787  
H127     H      0.243540000000     0.395120000000     0.295500000000     0.037522   
H128     H      0.156970000000     0.509560000000     0.408640000000     0.046973   
H129     H      0.109180000000     0.453360000000     0.366570000000     0.0398697  
H130     H      0.148240000000     0.491460000000     0.367570000000     0.0390179  
H131     H      0.214500000000     0.386040000000     0.331420000000     0.0409591  
H132     H      0.203720000000     0.358620000000     0.294150000000     0.0399672  
H133     H      0.123840000000     0.430770000000     0.417820000000     0.0395383  
H134     H      0.421530000000     0.413460000000     0.032600000000     0.0412812  
H135     H      0.424300000000     0.353070000000     0.114610000000     0.0351554  
H136     H      0.353900000000     0.413370000000     0.106890000000     0.0396635  
H137     H      0.516420000000     0.470920000000     0.036460000000     0.0417289  
H138     H      0.380720000000     0.324700000000     0.122770000000     0.0404025  
H139     H      0.424790000000     0.488210000000     0.042920000000     0.0346912  
H140     H      0.492800000000     0.424830000000     0.044730000000     0.0350632  
H141     H      0.448610000000     0.512340000000     0.006750000000     0.045602   
H142     H      0.328330000000     0.390080000000     0.142600000000     0.0386925  
H143     H      0.392110000000     0.381520000000     0.059040000000     0.045604   
H144     H      0.399640000000     0.330390000000     0.150890000000     0.0458647  
H145     H      0.455740000000     0.458080000000     0.095560000000     0.0451373  
H146     H      0.416380000000     0.378670000000     0.138690000000     0.038158   
H147     H      0.517310000000     0.449170000000     0.009330000000     0.0466113  
H148     H      0.430150000000     0.464080000000     0.017360000000     0.0379359  
H149     H      0.469690000000     0.427730000000     0.018250000000     0.0379822  
H150     H      0.426000000000     0.426430000000     0.121980000000     0.041453   
H151     H      0.375010000000     0.412810000000     0.134320000000     0.0409734  
H152     H      0.468920000000     0.515360000000     0.034500000000     0.0395695  
H153     H      0.138050000000     0.138160000000     0.581100000000     0.0410021  
H154     H      0.236240000000     0.172410000000     0.619380000000     0.0350636  
H155     H      0.169720000000     0.237570000000     0.619520000000     0.0396807  
H156     H      0.164460000000     0.121680000000     0.492530000000     0.0423421  
H157     H      0.232990000000     0.187650000000     0.661070000000     0.0433034  
H158     H      0.114510000000     0.182010000000     0.534960000000     0.0348198  
H159     H      0.182010000000     0.117960000000     0.533740000000     0.0347944  
H160     H      0.084520000000     0.151620000000     0.506250000000     0.0459387  
H161     H      0.200200000000     0.267800000000     0.648880000000     0.0387619  
H162     H      0.159680000000     0.159790000000     0.617780000000     0.0458989  
H163     H      0.266200000000     0.202350000000     0.648550000000     0.0456052  
H164     H      0.191340000000     0.195020000000     0.536650000000     0.0451595  
H165     H      0.244240000000     0.209090000000     0.608980000000     0.0366776  
H166     H      0.152600000000     0.087240000000     0.504960000000     0.0468232  
H167     H      0.106950000000     0.145430000000     0.545840000000     0.037242   
H168     H      0.146180000000     0.108170000000     0.545090000000     0.0371827  
H169     H      0.213020000000     0.216600000000     0.573360000000     0.0408776  
H170     H      0.206090000000     0.246390000000     0.609660000000     0.0389013  
H171     H      0.117840000000     0.165750000000     0.493380000000     0.0415289  
H172     H      0.208120000000     0.213940000000     0.826850000000     0.041236   
H173     H      0.112550000000     0.181990000000     0.872030000000     0.0351817  
H174     H      0.179760000000     0.117490000000     0.870440000000     0.0397867  
H175     H      0.177760000000     0.226940000000     0.739080000000     0.0413734  
H176     H      0.119520000000     0.167040000000     0.913700000000     0.0419061  
H177     H      0.226060000000     0.165990000000     0.780550000000     0.0351101  
H178     H      0.161830000000     0.233420000000     0.780760000000     0.0353554  
H179     H      0.255470000000     0.193270000000     0.749760000000     0.0466007  
H180     H      0.151550000000     0.087490000000     0.901270000000     0.0382914  
H181     H      0.189340000000     0.194270000000     0.865320000000     0.0457701  
H182     H      0.084980000000     0.153200000000     0.903150000000     0.0455603  
H183     H      0.150360000000     0.156180000000     0.787300000000     0.0450367  
H184     H      0.103970000000     0.145080000000     0.862520000000     0.0376893  
H185     H      0.190590000000     0.261770000000     0.750050000000     0.0470594  
H186     H      0.236510000000     0.202250000000     0.790540000000     0.0385093  
H187     H      0.198550000000     0.242080000000     0.790700000000     0.0383108  
H188     H      0.131660000000     0.136430000000     0.825770000000     0.0409886  
H189     H      0.143100000000     0.107810000000     0.861930000000     0.0397928  
H190     H      0.219910000000     0.182400000000     0.738970000000     0.0404809  
H191     H      0.172000000000     0.436820000000     0.628380000000     0.0419502  
H192     H      0.172920000000     0.498750000000     0.547380000000     0.0351528  
H193     H      0.101590000000     0.439600000000     0.555690000000     0.0395948  
H194     H      0.265180000000     0.377350000000     0.621190000000     0.0411617  
H195     H      0.129170000000     0.527390000000     0.539910000000     0.0400721  
H196     H      0.173540000000     0.362140000000     0.616850000000     0.0350769  
H197     H      0.242600000000     0.424390000000     0.614370000000     0.0351602  
H198     H      0.198140000000     0.336640000000     0.651890000000     0.0477213  
H199     H      0.076080000000     0.463120000000     0.520100000000     0.0388051  
H200     H      0.142180000000     0.469730000000     0.603050000000     0.0457903  
H201     H      0.148180000000     0.522310000000     0.511740000000     0.046391   
H202     H      0.203140000000     0.392740000000     0.564080000000     0.0449767  
H203     H      0.164360000000     0.473480000000     0.523190000000     0.0386098  
H204     H      0.268190000000     0.398710000000     0.648480000000     0.0475984  
H205     H      0.180160000000     0.385580000000     0.642660000000     0.039434   
H206     H      0.220430000000     0.421310000000     0.641390000000     0.0391386  
H207     H      0.173040000000     0.425310000000     0.538790000000     0.0413955  
H208     H      0.122320000000     0.439560000000     0.528050000000     0.0411722  
H209     H      0.217740000000     0.334320000000     0.623720000000     0.039052   
H210     H      0.465240000000     0.133860000000     0.588500000000     0.0410163  
H211     H      0.428720000000     0.233400000000     0.622860000000     0.0353195  
H212     H      0.364360000000     0.166140000000     0.624600000000     0.0395713  
H213     H      0.484540000000     0.158390000000     0.499660000000     0.0421602  
H214     H      0.412550000000     0.232330000000     0.664390000000     0.0443828  
H215     H      0.423260000000     0.107610000000     0.542460000000     0.034634   
H216     H      0.486500000000     0.175720000000     0.540730000000     0.0348949  
H217     H      0.454980000000     0.077270000000     0.514530000000     0.0450776  
H218     H      0.333110000000     0.197960000000     0.652300000000     0.0382505  
H219     H      0.442320000000     0.156850000000     0.624120000000     0.0461164  
H220     H      0.397790000000     0.264610000000     0.650360000000     0.0460547  
H221     H      0.408850000000     0.184240000000     0.541440000000     0.0450795  
H222     H      0.392230000000     0.240350000000     0.611590000000     0.0368347  
H223     H      0.518040000000     0.145230000000     0.512780000000     0.045238   
H224     H      0.459910000000     0.101020000000     0.553500000000     0.0366209  
H225     H      0.496200000000     0.140090000000     0.552490000000     0.0367554  
H226     H      0.385920000000     0.207210000000     0.577040000000     0.0408685  
H227     H      0.355360000000     0.201790000000     0.613170000000     0.0388351  
H228     H      0.438870000000     0.109160000000     0.500920000000     0.0421105  
H229     H      0.434430000000     0.429650000000     0.782460000000     0.041473   
H230     H      0.434650000000     0.493860000000     0.859040000000     0.0349759  
H231     H      0.497080000000     0.424830000000     0.862490000000     0.0398535  
H232     H      0.333550000000     0.382150000000     0.783870000000     0.0396446  
H233     H      0.480680000000     0.517150000000     0.868700000000     0.0409982  
H234     H      0.423540000000     0.357090000000     0.794770000000     0.0349854  
H235     H      0.361090000000     0.425980000000     0.792520000000     0.0347742  
H236     H      0.399570000000     0.333240000000     0.758970000000     0.0464879  
H237     H      0.519490000000     0.448660000000     0.899910000000     0.0374621  
H238     H      0.466520000000     0.458630000000     0.809070000000     0.0458341  
H239     H      0.457420000000     0.518170000000     0.894910000000     0.0459685  
H240     H      0.392150000000     0.392170000000     0.845280000000     0.0447278  
H241     H      0.436300000000     0.470650000000     0.885560000000     0.0381972  
H242     H      0.337070000000     0.402530000000     0.756160000000     0.0450338  
H243     H      0.421340000000     0.380370000000     0.768330000000     0.0383925  
H244     H      0.385360000000     0.420300000000     0.767090000000     0.0379745  
H245     H      0.424200000000     0.421140000000     0.871870000000     0.0411296  
H246     H      0.472610000000     0.431000000000     0.887390000000     0.0399411  
H247     H      0.377410000000     0.333770000000     0.785870000000     0.0397505  
H248     H      0.459470000000     0.134300000000     0.830560000000     0.0413188  
H249     H      0.362950000000     0.166750000000     0.786750000000     0.035348   
H250     H      0.430640000000     0.230780000000     0.786820000000     0.0398708  
H251     H      0.429920000000     0.121590000000     0.918750000000     0.0396951  
H252     H      0.368790000000     0.181490000000     0.744890000000     0.0432448  
H253     H      0.478860000000     0.181920000000     0.876620000000     0.0350358  
H254     H      0.414020000000     0.115140000000     0.877120000000     0.03483    
H255     H      0.508280000000     0.154480000000     0.907430000000     0.0462309  
H256     H      0.401770000000     0.260820000000     0.756400000000     0.0387568  
H257     H      0.439950000000     0.153960000000     0.792310000000     0.0459876  
H258     H      0.334680000000     0.195640000000     0.756060000000     0.0460256  
H259     H      0.403030000000     0.192630000000     0.870800000000     0.0448336  
H260     H      0.354900000000     0.203740000000     0.796320000000     0.0376513  
H261     H      0.442840000000     0.086760000000     0.907860000000     0.0458321  
H262     H      0.488730000000     0.145420000000     0.866870000000     0.0384968  
H263     H      0.450650000000     0.106200000000     0.867150000000     0.0380455  
H264     H      0.383610000000     0.212390000000     0.832570000000     0.0409234  
H265     H      0.394310000000     0.240770000000     0.796000000000     0.0396246  
H266     H      0.473130000000     0.166320000000     0.918400000000     0.0398568  
H267     H      0.138490000000     0.464030000000     0.830390000000     0.0418466  
H268     H      0.236050000000     0.432450000000     0.786560000000     0.0351932  
H269     H      0.167570000000     0.369320000000     0.785030000000     0.0400481  
H270     H      0.168720000000     0.474040000000     0.918790000000     0.0394705  
H271     H      0.230630000000     0.418990000000     0.744370000000     0.0418491  
H272     H      0.117990000000     0.416390000000     0.875750000000     0.0353241  
H273     H      0.184660000000     0.481320000000     0.877280000000     0.0351711  
H274     H      0.089220000000     0.444240000000     0.906940000000     0.047423   
H275     H      0.196040000000     0.339930000000     0.754100000000     0.0391228  
H276     H      0.158580000000     0.445580000000     0.791910000000     0.0459806  
H277     H      0.264320000000     0.403820000000     0.755520000000     0.0456255  
H278     H      0.194520000000     0.404570000000     0.869890000000     0.0447788  
H279     H      0.243540000000     0.395120000000     0.795500000000     0.0375236  
H280     H      0.156970000000     0.509560000000     0.908640000000     0.0469711  
H281     H      0.109180000000     0.453360000000     0.866570000000     0.0398698  
H282     H      0.148240000000     0.491460000000     0.867570000000     0.039035   
H283     H      0.214500000000     0.386040000000     0.831430000000     0.0409584  
H284     H      0.203720000000     0.358620000000     0.794140000000     0.0399897  
H285     H      0.123840000000     0.430770000000     0.917820000000     0.0395394  
H286     H      0.421530000000     0.413460000000     0.532600000000     0.0412829  
H287     H      0.424300000000     0.353070000000     0.614610000000     0.0351555  
H288     H      0.353900000000     0.413370000000     0.606890000000     0.0396637  
H289     H      0.516420000000     0.470920000000     0.536460000000     0.0417301  
H290     H      0.380720000000     0.324700000000     0.622770000000     0.0404032  
H291     H      0.424790000000     0.488210000000     0.542920000000     0.0346816  
H292     H      0.492800000000     0.424830000000     0.544730000000     0.0350639  
H293     H      0.448610000000     0.512340000000     0.506750000000     0.0456105  
H294     H      0.328330000000     0.390080000000     0.642600000000     0.0387032  
H295     H      0.392110000000     0.381520000000     0.559040000000     0.0456048  
H296     H      0.399640000000     0.330390000000     0.650890000000     0.0458651  
H297     H      0.455740000000     0.458080000000     0.595560000000     0.0451374  
H298     H      0.416380000000     0.378670000000     0.638690000000     0.038158   
H299     H      0.517310000000     0.449170000000     0.509330000000     0.0466146  
H300     H      0.430150000000     0.464080000000     0.517360000000     0.037915   
H301     H      0.469690000000     0.427730000000     0.518250000000     0.0379835  
H302     H      0.426000000000     0.426430000000     0.621980000000     0.0414528  
H303     H      0.375010000000     0.412810000000     0.634320000000     0.0409746  
H304     H      0.468920000000     0.515360000000     0.534500000000     0.0395767  
H305     H      0.138050000000     0.638160000000     0.081100000000     0.0411463  
H306     H      0.236240000000     0.672410000000     0.119380000000     0.0351904  
H307     H      0.169720000000     0.737570000000     0.119520000000     0.0396676  
H308     H      0.164460000000     0.621680000000     0.992530000000     0.0424339  
H309     H      0.232990000000     0.687650000000     0.161070000000     0.0434059  
H310     H      0.114510000000     0.682010000000     0.034960000000     0.0348111  
H311     H      0.182010000000     0.617960000000     0.033740000000     0.0349732  
H312     H      0.084520000000     0.651620000000     0.006250000000     0.0459869  
H313     H      0.200200000000     0.767800000000     0.148880000000     0.0387635  
H314     H      0.159680000000     0.659790000000     0.117780000000     0.0460317  
H315     H      0.266200000000     0.702350000000     0.148550000000     0.0456608  
H316     H      0.191340000000     0.695020000000     0.036650000000     0.0451773  
H317     H      0.244240000000     0.709090000000     0.108980000000     0.0366995  
H318     H      0.152600000000     0.587240000000     0.004960000000     0.0470094  
H319     H      0.106950000000     0.645430000000     0.045840000000     0.0373071  
H320     H      0.146180000000     0.608170000000     0.045090000000     0.0373694  
H321     H      0.213020000000     0.716600000000     0.073360000000     0.0408855  
H322     H      0.206090000000     0.746390000000     0.109660000000     0.038872   
H323     H      0.117840000000     0.665750000000     0.993380000000     0.0415659  
H324     H      0.208120000000     0.713940000000     0.326850000000     0.0412463  
H325     H      0.112550000000     0.681990000000     0.372030000000     0.0351873  
H326     H      0.179760000000     0.617490000000     0.370440000000     0.0399755  
H327     H      0.177760000000     0.726940000000     0.239080000000     0.0413982  
H328     H      0.119520000000     0.667040000000     0.413700000000     0.0418855  
H329     H      0.226060000000     0.665990000000     0.280550000000     0.0352549  
H330     H      0.161830000000     0.733420000000     0.280760000000     0.0353671  
H331     H      0.255470000000     0.693270000000     0.249760000000     0.0466719  
H332     H      0.151550000000     0.587490000000     0.401270000000     0.0385175  
H333     H      0.189340000000     0.694270000000     0.365320000000     0.0457846  
H334     H      0.084980000000     0.653200000000     0.403150000000     0.0455739  
H335     H      0.150360000000     0.656180000000     0.287300000000     0.0451792  
H336     H      0.103970000000     0.645080000000     0.362520000000     0.0377756  
H337     H      0.190590000000     0.761780000000     0.250050000000     0.0470421  
H338     H      0.236510000000     0.702250000000     0.290540000000     0.0385389  
H339     H      0.198550000000     0.742080000000     0.290700000000     0.0383057  
H340     H      0.131660000000     0.636430000000     0.325770000000     0.0411458  
H341     H      0.143100000000     0.607810000000     0.361930000000     0.0400169  
H342     H      0.219910000000     0.682400000000     0.238970000000     0.0405916  
H343     H      0.172000000000     0.936820000000     0.128380000000     0.0420941  
H344     H      0.172920000000     0.998750000000     0.047380000000     0.0352989  
H345     H      0.101590000000     0.939590000000     0.055690000000     0.039525   
H346     H      0.265180000000     0.877350000000     0.121190000000     0.0411849  
H347     H      0.129170000000     0.027390000000     0.039910000000     0.0401731  
H348     H      0.173540000000     0.862140000000     0.116850000000     0.0350848  
H349     H      0.242600000000     0.924390000000     0.114370000000     0.0353427  
H350     H      0.198140000000     0.836640000000     0.151890000000     0.0477233  
H351     H      0.076080000000     0.963120000000     0.020100000000     0.0389953  
H352     H      0.142180000000     0.969730000000     0.103050000000     0.0460946  
H353     H      0.148180000000     0.022310000000     0.011740000000     0.0467003  
H354     H      0.203140000000     0.892740000000     0.064080000000     0.0450134  
H355     H      0.164360000000     0.973480000000     0.023190000000     0.0384859  
H356     H      0.268190000000     0.898710000000     0.148480000000     0.0476893  
H357     H      0.180160000000     0.885580000000     0.142660000000     0.039482   
H358     H      0.220430000000     0.921310000000     0.141390000000     0.0392871  
H359     H      0.173040000000     0.925310000000     0.038790000000     0.0414828  
H360     H      0.122320000000     0.939560000000     0.028050000000     0.0411646  
H361     H      0.217740000000     0.834320000000     0.123720000000     0.0390445  
H362     H      0.465240000000     0.633860000000     0.088500000000     0.0411807  
H363     H      0.428720000000     0.733400000000     0.122860000000     0.0353244  
H364     H      0.364360000000     0.666140000000     0.124600000000     0.0396973  
H365     H      0.484540000000     0.658390000000     0.999660000000     0.0421628  
H366     H      0.412550000000     0.732330000000     0.164390000000     0.0444006  
H367     H      0.423260000000     0.607610000000     0.042460000000     0.0348373  
H368     H      0.486500000000     0.675720000000     0.040730000000     0.0348983  
H369     H      0.454980000000     0.577270000000     0.014530000000     0.0452428  
H370     H      0.333110000000     0.697960000000     0.152300000000     0.0383102  
H371     H      0.442320000000     0.656850000000     0.124120000000     0.0462838  
H372     H      0.397790000000     0.764610000000     0.150360000000     0.0460539  
H373     H      0.408850000000     0.684240000000     0.041440000000     0.0451054  
H374     H      0.392230000000     0.740350000000     0.111590000000     0.0368277  
H375     H      0.518040000000     0.645230000000     0.012780000000     0.0452571  
H376     H      0.459910000000     0.601020000000     0.053500000000     0.0368218  
H377     H      0.496200000000     0.640090000000     0.052490000000     0.0368387  
H378     H      0.385920000000     0.707210000000     0.077040000000     0.0408846  
H379     H      0.355360000000     0.701790000000     0.113170000000     0.0388608  
H380     H      0.438870000000     0.609160000000     0.000920000000     0.0421998  
H381     H      0.434430000000     0.929650000000     0.282460000000     0.0416101  
H382     H      0.434650000000     0.993860000000     0.359040000000     0.0351267  
H383     H      0.497080000000     0.924830000000     0.362490000000     0.0397996  
H384     H      0.333550000000     0.882150000000     0.283870000000     0.0396816  
H385     H      0.480680000000     0.017150000000     0.368700000000     0.041041   
H386     H      0.423540000000     0.857090000000     0.294770000000     0.0349909  
H387     H      0.361090000000     0.925980000000     0.292520000000     0.0349696  
H388     H      0.399570000000     0.833240000000     0.258970000000     0.0464924  
H389     H      0.519490000000     0.948660000000     0.399910000000     0.0376531  
H390     H      0.466520000000     0.958630000000     0.309070000000     0.0460875  
H391     H      0.457420000000     0.018170000000     0.394910000000     0.0462639  
H392     H      0.392150000000     0.892170000000     0.345280000000     0.0447817  
H393     H      0.436300000000     0.970650000000     0.385560000000     0.03811    
H394     H      0.337070000000     0.902530000000     0.256160000000     0.0451405  
H395     H      0.421340000000     0.880370000000     0.268330000000     0.0384403  
H396     H      0.385360000000     0.920300000000     0.267090000000     0.0381309  
H397     H      0.424200000000     0.921140000000     0.371870000000     0.0412245  
H398     H      0.472610000000     0.931000000000     0.387390000000     0.0399694  
H399     H      0.377410000000     0.833770000000     0.285870000000     0.0397451  
H400     H      0.459470000000     0.634300000000     0.330560000000     0.0414615  
H401     H      0.362950000000     0.666750000000     0.286750000000     0.0354984  
H402     H      0.430640000000     0.730780000000     0.286820000000     0.0398752  
H403     H      0.429920000000     0.621590000000     0.418750000000     0.0397774  
H404     H      0.368790000000     0.681490000000     0.244880000000     0.0432957  
H405     H      0.478860000000     0.681920000000     0.376620000000     0.0350386  
H406     H      0.414020000000     0.615140000000     0.377120000000     0.035018   
H407     H      0.508280000000     0.654480000000     0.407430000000     0.0462447  
H408     H      0.401770000000     0.760820000000     0.256400000000     0.0387576  
H409     H      0.439950000000     0.653960000000     0.292310000000     0.0461269  
H410     H      0.334680000000     0.695640000000     0.256060000000     0.0460434  
H411     H      0.403030000000     0.692630000000     0.370800000000     0.0448559  
H412     H      0.354900000000     0.703740000000     0.296320000000     0.0376894  
H413     H      0.442840000000     0.586760000000     0.407860000000     0.0460337  
H414     H      0.488730000000     0.645420000000     0.366870000000     0.0385686  
H415     H      0.450650000000     0.606200000000     0.367150000000     0.038229   
H416     H      0.383610000000     0.712390000000     0.332570000000     0.0409336  
H417     H      0.394310000000     0.740770000000     0.296000000000     0.0396169  
H418     H      0.473130000000     0.666320000000     0.418400000000     0.0398471  
H419     H      0.138490000000     0.964030000000     0.330390000000     0.0420732  
H420     H      0.236050000000     0.932450000000     0.286560000000     0.0354     
H421     H      0.167570000000     0.869320000000     0.285030000000     0.0400483  
H422     H      0.168720000000     0.974040000000     0.418790000000     0.0392404  
H423     H      0.230630000000     0.918990000000     0.244370000000     0.0420107  
H424     H      0.117990000000     0.916390000000     0.375750000000     0.0353465  
H425     H      0.184660000000     0.981320000000     0.377280000000     0.035798   
H426     H      0.089220000000     0.944240000000     0.406940000000     0.0473911  
H427     H      0.196040000000     0.839930000000     0.254100000000     0.0391325  
H428     H      0.158580000000     0.945580000000     0.291910000000     0.0461841  
H429     H      0.264320000000     0.903820000000     0.255520000000     0.0457206  
H430     H      0.194520000000     0.904570000000     0.369890000000     0.044841   
H431     H      0.243540000000     0.895120000000     0.295500000000     0.0375689  
H432     H      0.156970000000     0.009560000000     0.408640000000     0.0448163  
H433     H      0.109180000000     0.953360000000     0.366570000000     0.0399994  
H434     H      0.148240000000     0.991460000000     0.367570000000     0.0396992  
H435     H      0.214500000000     0.886040000000     0.331420000000     0.0409847  
H436     H      0.203720000000     0.858620000000     0.294150000000     0.039958   
H437     H      0.123840000000     0.930770000000     0.417820000000     0.0395372  
H438     H      0.421530000000     0.913460000000     0.032600000000     0.0413574  
H439     H      0.424300000000     0.853070000000     0.114610000000     0.0351618  
H440     H      0.353900000000     0.913370000000     0.106890000000     0.0398203  
H441     H      0.516420000000     0.970920000000     0.036460000000     0.0419684  
H442     H      0.380720000000     0.824700000000     0.122770000000     0.0404     
H443     H      0.424790000000     0.988210000000     0.042920000000     0.0356421  
H444     H      0.492800000000     0.924830000000     0.044730000000     0.0351299  
H445     H      0.448610000000     0.012340000000     0.006750000000     0.0430996  
H446     H      0.328330000000     0.890080000000     0.142600000000     0.0387681  
H447     H      0.392110000000     0.881520000000     0.059040000000     0.0456373  
H448     H      0.399640000000     0.830400000000     0.150890000000     0.0458801  
H449     H      0.455740000000     0.958080000000     0.095560000000     0.0454231  
H450     H      0.416380000000     0.878670000000     0.138690000000     0.0382088  
H451     H      0.517310000000     0.949170000000     0.009330000000     0.0466964  
H452     H      0.430150000000     0.964080000000     0.017360000000     0.0385796  
H453     H      0.469690000000     0.927730000000     0.018250000000     0.0380777  
H454     H      0.426000000000     0.926430000000     0.121980000000     0.0415902  
H455     H      0.375010000000     0.912810000000     0.134320000000     0.0411178  
H456     H      0.468920000000     0.015360000000     0.034500000000     0.0369235  
H457     H      0.138050000000     0.638160000000     0.581100000000     0.0411463  
H458     H      0.236240000000     0.672410000000     0.619380000000     0.0351907  
H459     H      0.169720000000     0.737570000000     0.619520000000     0.0396821  
H460     H      0.164460000000     0.621680000000     0.492530000000     0.042421   
H461     H      0.232990000000     0.687650000000     0.661070000000     0.0434059  
H462     H      0.114510000000     0.682010000000     0.534960000000     0.0348138  
H463     H      0.182010000000     0.617960000000     0.533740000000     0.0349759  
H464     H      0.084520000000     0.651620000000     0.506250000000     0.0459861  
H465     H      0.200200000000     0.767800000000     0.648880000000     0.0387629  
H466     H      0.159680000000     0.659790000000     0.617780000000     0.0460318  
H467     H      0.266200000000     0.702350000000     0.648550000000     0.0456607  
H468     H      0.191340000000     0.695020000000     0.536650000000     0.0451791  
H469     H      0.244240000000     0.709090000000     0.608980000000     0.0367004  
H470     H      0.152600000000     0.587240000000     0.504960000000     0.0470077  
H471     H      0.106950000000     0.645430000000     0.545840000000     0.0373088  
H472     H      0.146180000000     0.608170000000     0.545090000000     0.0373711  
H473     H      0.213020000000     0.716600000000     0.573360000000     0.0408863  
H474     H      0.206090000000     0.746390000000     0.609660000000     0.0388929  
H475     H      0.117840000000     0.665750000000     0.493380000000     0.0415537  
H476     H      0.208120000000     0.713940000000     0.826850000000     0.0412445  
H477     H      0.112550000000     0.681990000000     0.872030000000     0.0351855  
H478     H      0.179760000000     0.617490000000     0.870440000000     0.0399735  
H479     H      0.177760000000     0.726940000000     0.739080000000     0.0413983  
H480     H      0.119520000000     0.667040000000     0.913700000000     0.0418878  
H481     H      0.226060000000     0.665990000000     0.780550000000     0.0352547  
H482     H      0.161830000000     0.733420000000     0.780760000000     0.0353671  
H483     H      0.255470000000     0.693270000000     0.749760000000     0.0466718  
H484     H      0.151550000000     0.587490000000     0.901270000000     0.0385095  
H485     H      0.189340000000     0.694270000000     0.865320000000     0.0457869  
H486     H      0.084980000000     0.653200000000     0.903150000000     0.0455729  
H487     H      0.150360000000     0.656180000000     0.787300000000     0.0451797  
H488     H      0.103970000000     0.645080000000     0.862520000000     0.0377728  
H489     H      0.190590000000     0.761780000000     0.750050000000     0.0470421  
H490     H      0.236510000000     0.702250000000     0.790540000000     0.0385389  
H491     H      0.198550000000     0.742080000000     0.790700000000     0.0383057  
H492     H      0.131660000000     0.636430000000     0.825770000000     0.0411403  
H493     H      0.143100000000     0.607810000000     0.861930000000     0.0400133  
H494     H      0.219910000000     0.682400000000     0.738970000000     0.0405915  
H495     H      0.172000000000     0.936820000000     0.628380000000     0.0420941  
H496     H      0.172920000000     0.998750000000     0.547380000000     0.0352996  
H497     H      0.101590000000     0.939590000000     0.555690000000     0.0395252  
H498     H      0.265180000000     0.877350000000     0.621190000000     0.0411852  
H499     H      0.129170000000     0.027390000000     0.539910000000     0.0401742  
H500     H      0.173540000000     0.862140000000     0.616850000000     0.035085   
H501     H      0.242600000000     0.924390000000     0.614370000000     0.0353429  
H502     H      0.198140000000     0.836640000000     0.651890000000     0.0477233  
H503     H      0.076080000000     0.963120000000     0.520100000000     0.0389982  
H504     H      0.142180000000     0.969730000000     0.603050000000     0.0460946  
H505     H      0.148180000000     0.022310000000     0.511740000000     0.0467032  
H506     H      0.203140000000     0.892740000000     0.564080000000     0.0450144  
H507     H      0.164360000000     0.973480000000     0.523190000000     0.0384875  
H508     H      0.268190000000     0.898710000000     0.648480000000     0.0476891  
H509     H      0.180160000000     0.885580000000     0.642660000000     0.0394821  
H510     H      0.220430000000     0.921310000000     0.641390000000     0.0392872  
H511     H      0.173040000000     0.925310000000     0.538790000000     0.0414842  
H512     H      0.122320000000     0.939560000000     0.528050000000     0.0411662  
H513     H      0.217740000000     0.834320000000     0.623720000000     0.0390447  
H514     H      0.465240000000     0.633860000000     0.588500000000     0.0411865  
H515     H      0.428720000000     0.733400000000     0.622860000000     0.0353244  
H516     H      0.364360000000     0.666140000000     0.624600000000     0.0396973  
H517     H      0.484540000000     0.658390000000     0.499660000000     0.0421503  
H518     H      0.412550000000     0.732330000000     0.664390000000     0.0444005  
H519     H      0.423260000000     0.607610000000     0.542460000000     0.0348375  
H520     H      0.486500000000     0.675720000000     0.540730000000     0.0349003  
H521     H      0.454980000000     0.577270000000     0.514530000000     0.0452451  
H522     H      0.333110000000     0.697960000000     0.652300000000     0.0383103  
H523     H      0.442320000000     0.656850000000     0.624120000000     0.0462383  
H524     H      0.397790000000     0.764610000000     0.650360000000     0.046054   
H525     H      0.408850000000     0.684240000000     0.541440000000     0.0451101  
H526     H      0.392230000000     0.740350000000     0.611590000000     0.0368285  
H527     H      0.518040000000     0.645230000000     0.512780000000     0.0452576  
H528     H      0.459910000000     0.601020000000     0.553500000000     0.0368218  
H529     H      0.496200000000     0.640090000000     0.552490000000     0.0368395  
H530     H      0.385920000000     0.707210000000     0.577040000000     0.0408799  
H531     H      0.355360000000     0.701790000000     0.613170000000     0.0388616  
H532     H      0.438870000000     0.609160000000     0.500920000000     0.0422013  
H533     H      0.434430000000     0.929650000000     0.782460000000     0.0416129  
H534     H      0.434650000000     0.993860000000     0.859040000000     0.0351266  
H535     H      0.497080000000     0.924830000000     0.862490000000     0.0397999  
H536     H      0.333550000000     0.882150000000     0.783870000000     0.0396818  
H537     H      0.480680000000     0.017150000000     0.868700000000     0.0410387  
H538     H      0.423540000000     0.857090000000     0.794770000000     0.0349908  
H539     H      0.361090000000     0.925980000000     0.792520000000     0.0349694  
H540     H      0.399570000000     0.833240000000     0.758970000000     0.0464924  
H541     H      0.519490000000     0.948660000000     0.899910000000     0.0376536  
H542     H      0.466520000000     0.958630000000     0.809070000000     0.0460861  
H543     H      0.457420000000     0.018170000000     0.894910000000     0.0462624  
H544     H      0.392150000000     0.892170000000     0.845280000000     0.0447783  
H545     H      0.436300000000     0.970650000000     0.885560000000     0.0381106  
H546     H      0.337070000000     0.902530000000     0.756160000000     0.0451405  
H547     H      0.421340000000     0.880370000000     0.768330000000     0.0384397  
H548     H      0.385360000000     0.920300000000     0.767090000000     0.0381303  
H549     H      0.424200000000     0.921140000000     0.871870000000     0.0412267  
H550     H      0.472610000000     0.931000000000     0.887390000000     0.0399702  
H551     H      0.377410000000     0.833770000000     0.785870000000     0.0397453  
H552     H      0.459470000000     0.634300000000     0.830560000000     0.0414606  
H553     H      0.362950000000     0.666750000000     0.786750000000     0.0354953  
H554     H      0.430640000000     0.730780000000     0.786820000000     0.039875   
H555     H      0.429920000000     0.621590000000     0.918750000000     0.0397811  
H556     H      0.368790000000     0.681490000000     0.744890000000     0.0433075  
H557     H      0.478860000000     0.681920000000     0.876620000000     0.0350393  
H558     H      0.414020000000     0.615140000000     0.877120000000     0.0350189  
H559     H      0.508280000000     0.654480000000     0.907430000000     0.0462387  
H560     H      0.401770000000     0.760820000000     0.756400000000     0.0387578  
H561     H      0.439950000000     0.653960000000     0.792310000000     0.0461266  
H562     H      0.334680000000     0.695640000000     0.756060000000     0.0460517  
H563     H      0.403030000000     0.692630000000     0.870800000000     0.0448567  
H564     H      0.354900000000     0.703740000000     0.796320000000     0.037688   
H565     H      0.442840000000     0.586760000000     0.907860000000     0.0460281  
H566     H      0.488730000000     0.645420000000     0.866870000000     0.038566   
H567     H      0.450650000000     0.606200000000     0.867150000000     0.0382267  
H568     H      0.383610000000     0.712390000000     0.832570000000     0.0409339  
H569     H      0.394310000000     0.740770000000     0.796000000000     0.039617   
H570     H      0.473130000000     0.666320000000     0.918400000000     0.0398506  
H571     H      0.138490000000     0.964030000000     0.830390000000     0.0420729  
H572     H      0.236050000000     0.932450000000     0.786560000000     0.0354003  
H573     H      0.167570000000     0.869320000000     0.785030000000     0.040056   
H574     H      0.168720000000     0.974040000000     0.918790000000     0.0392409  
H575     H      0.230630000000     0.918990000000     0.744370000000     0.0420104  
H576     H      0.117990000000     0.916390000000     0.875750000000     0.035347   
H577     H      0.184660000000     0.981320000000     0.877280000000     0.0358114  
H578     H      0.089220000000     0.944240000000     0.906940000000     0.0473914  
H579     H      0.196040000000     0.839930000000     0.754100000000     0.0391253  
H580     H      0.158580000000     0.945580000000     0.791910000000     0.0461842  
H581     H      0.264320000000     0.903820000000     0.755520000000     0.0457203  
H582     H      0.194520000000     0.904570000000     0.869890000000     0.0448411  
H583     H      0.243540000000     0.895120000000     0.795500000000     0.0375705  
H584     H      0.156970000000     0.009560000000     0.908640000000     0.0448146  
H585     H      0.109180000000     0.953360000000     0.866570000000     0.0399995  
H586     H      0.148240000000     0.991460000000     0.867570000000     0.0397163  
H587     H      0.214500000000     0.886040000000     0.831430000000     0.040984   
H588     H      0.203720000000     0.858620000000     0.794140000000     0.0399806  
H589     H      0.123840000000     0.930770000000     0.917820000000     0.0395383  
H590     H      0.421530000000     0.913460000000     0.532600000000     0.0413592  
H591     H      0.424300000000     0.853070000000     0.614610000000     0.0351619  
H592     H      0.353900000000     0.913370000000     0.606890000000     0.0398206  
H593     H      0.516420000000     0.970920000000     0.536460000000     0.0419697  
H594     H      0.380720000000     0.824700000000     0.622770000000     0.0404006  
H595     H      0.424790000000     0.988210000000     0.542920000000     0.0356332  
H596     H      0.492800000000     0.924830000000     0.544730000000     0.0351307  
H597     H      0.448610000000     0.012340000000     0.506750000000     0.0431061  
H598     H      0.328330000000     0.890080000000     0.642600000000     0.0387788  
H599     H      0.392110000000     0.881520000000     0.559040000000     0.0456383  
H600     H      0.399640000000     0.830400000000     0.650890000000     0.0458805  
H601     H      0.455740000000     0.958080000000     0.595560000000     0.0454233  
H602     H      0.416380000000     0.878670000000     0.638690000000     0.0382087  
H603     H      0.517310000000     0.949170000000     0.509330000000     0.0466999  
H604     H      0.430150000000     0.964080000000     0.517360000000     0.0385587  
H605     H      0.469690000000     0.927730000000     0.518250000000     0.0380791  
H606     H      0.426000000000     0.926430000000     0.621980000000     0.0415901  
H607     H      0.375010000000     0.912810000000     0.634320000000     0.041119   
H608     H      0.468920000000     0.015360000000     0.534500000000     0.0369288  
H609     H      0.638050000000     0.138160000000     0.081100000000     0.0410939  
H610     H      0.736240000000     0.172410000000     0.119380000000     0.0350614  
H611     H      0.669720000000     0.237570000000     0.119520000000     0.03975    
H612     H      0.664460000000     0.121680000000     0.992530000000     0.0423489  
H613     H      0.733000000000     0.187650000000     0.161070000000     0.043329   
H614     H      0.614510000000     0.182010000000     0.034960000000     0.0349547  
H615     H      0.682010000000     0.117960000000     0.033740000000     0.0347913  
H616     H      0.584520000000     0.151620000000     0.006250000000     0.0460726  
H617     H      0.700200000000     0.267800000000     0.148880000000     0.0387869  
H618     H      0.659680000000     0.159790000000     0.117780000000     0.0459813  
H619     H      0.766200000000     0.202350000000     0.148550000000     0.0456088  
H620     H      0.691340000000     0.195020000000     0.036650000000     0.0451746  
H621     H      0.744240000000     0.209090000000     0.108980000000     0.0366658  
H622     H      0.652600000000     0.087240000000     0.004960000000     0.0468266  
H623     H      0.606950000000     0.145430000000     0.045840000000     0.0373826  
H624     H      0.646180000000     0.108170000000     0.045090000000     0.0372232  
H625     H      0.713020000000     0.216600000000     0.073360000000     0.0408838  
H626     H      0.706090000000     0.246390000000     0.109660000000     0.038898   
H627     H      0.617840000000     0.165750000000     0.993380000000     0.0416003  
H628     H      0.708120000000     0.213940000000     0.326850000000     0.0412447  
H629     H      0.612550000000     0.181990000000     0.372030000000     0.0353141  
H630     H      0.679770000000     0.117490000000     0.370440000000     0.0397678  
H631     H      0.677760000000     0.226940000000     0.239080000000     0.0414476  
H632     H      0.619520000000     0.167040000000     0.413700000000     0.0419539  
H633     H      0.726060000000     0.165990000000     0.280550000000     0.0351212  
H634     H      0.661830000000     0.233420000000     0.280760000000     0.0354756  
H635     H      0.755480000000     0.193270000000     0.249760000000     0.0465859  
H636     H      0.651550000000     0.087490000000     0.401270000000     0.0383118  
H637     H      0.689340000000     0.194270000000     0.365320000000     0.0457856  
H638     H      0.584970000000     0.153200000000     0.403150000000     0.0456898  
H639     H      0.650360000000     0.156180000000     0.287300000000     0.0451375  
H640     H      0.603970000000     0.145080000000     0.362520000000     0.037835   
H641     H      0.690600000000     0.261770000000     0.250050000000     0.0471158  
H642     H      0.736510000000     0.202250000000     0.290540000000     0.0385072  
H643     H      0.698550000000     0.242080000000     0.290700000000     0.0383375  
H644     H      0.631660000000     0.136430000000     0.325770000000     0.0410942  
H645     H      0.643100000000     0.107810000000     0.361930000000     0.0398443  
H646     H      0.719910000000     0.182400000000     0.238970000000     0.0404969  
H647     H      0.672000000000     0.436820000000     0.128380000000     0.0420087  
H648     H      0.672920000000     0.498750000000     0.047380000000     0.035155   
H649     H      0.601590000000     0.439600000000     0.055690000000     0.0397231  
H650     H      0.765180000000     0.377350000000     0.121190000000     0.0411562  
H651     H      0.629170000000     0.527390000000     0.039910000000     0.0401157  
H652     H      0.673540000000     0.362140000000     0.116850000000     0.0351496  
H653     H      0.742600000000     0.424390000000     0.114370000000     0.0351647  
H654     H      0.698140000000     0.336640000000     0.151890000000     0.047777   
H655     H      0.576080000000     0.463120000000     0.020100000000     0.0389293  
H656     H      0.642180000000     0.469730000000     0.103050000000     0.0458792  
H657     H      0.648180000000     0.522310000000     0.011740000000     0.0463898  
H658     H      0.703140000000     0.392740000000     0.064080000000     0.0449941  
H659     H      0.664360000000     0.473480000000     0.023190000000     0.038607   
H660     H      0.768190000000     0.398710000000     0.148480000000     0.0476057  
H661     H      0.680160000000     0.385580000000     0.142660000000     0.0394911  
H662     H      0.720430000000     0.421310000000     0.141390000000     0.0391636  
H663     H      0.673040000000     0.425310000000     0.038790000000     0.0414122  
H664     H      0.622320000000     0.439560000000     0.028050000000     0.0412223  
H665     H      0.717740000000     0.334320000000     0.123720000000     0.0390653  
H666     H      0.965240000000     0.133860000000     0.088500000000     0.0411757  
H667     H      0.928720000000     0.233400000000     0.122860000000     0.0354536  
H668     H      0.864360000000     0.166140000000     0.124600000000     0.0395781  
H669     H      0.984540000000     0.158390000000     0.999660000000     0.042046   
H670     H      0.912550000000     0.232330000000     0.164390000000     0.0444677  
H671     H      0.923260000000     0.107610000000     0.042460000000     0.0346619  
H672     H      0.986500000000     0.175720000000     0.040730000000     0.0353235  
H673     H      0.954980000000     0.077270000000     0.014530000000     0.0450917  
H674     H      0.833110000000     0.197960000000     0.152300000000     0.0382497  
H675     H      0.942320000000     0.156850000000     0.124120000000     0.0462935  
H676     H      0.897790000000     0.264610000000     0.150360000000     0.0461034  
H677     H      0.908850000000     0.184240000000     0.041440000000     0.045116   
H678     H      0.892240000000     0.240350000000     0.111590000000     0.0368729  
H679     H      0.018040000000     0.145230000000     0.012780000000     0.0438158  
H680     H      0.959910000000     0.101020000000     0.053500000000     0.0367603  
H681     H      0.996200000000     0.140090000000     0.052490000000     0.0372293  
H682     H      0.885920000000     0.207210000000     0.077040000000     0.0408898  
H683     H      0.855360000000     0.201790000000     0.113170000000     0.0388306  
H684     H      0.938870000000     0.109160000000     0.000920000000     0.0420805  
H685     H      0.934430000000     0.429650000000     0.282460000000     0.0415742  
H686     H      0.934650000000     0.493860000000     0.359040000000     0.0349719  
H687     H      0.997080000000     0.424830000000     0.362490000000     0.0400088  
H688     H      0.833550000000     0.382150000000     0.283870000000     0.0396411  
H689     H      0.980680000000     0.517150000000     0.368700000000     0.0413865  
H690     H      0.923540000000     0.357090000000     0.294770000000     0.0351071  
H691     H      0.861090000000     0.425980000000     0.292520000000     0.0347833  
H692     H      0.899570000000     0.333240000000     0.258970000000     0.0465528  
H693     H      0.019480000000     0.448660000000     0.399910000000     0.0375939  
H694     H      0.966520000000     0.458630000000     0.309070000000     0.0460646  
H695     H      0.957420000000     0.518170000000     0.394910000000     0.0461117  
H696     H      0.892150000000     0.392170000000     0.345280000000     0.044759   
H697     H      0.936290000000     0.470650000000     0.385560000000     0.038196   
H698     H      0.837070000000     0.402530000000     0.256160000000     0.0450408  
H699     H      0.921340000000     0.380370000000     0.268330000000     0.0385009  
H700     H      0.885360000000     0.420300000000     0.267090000000     0.0380159  
H701     H      0.924200000000     0.421140000000     0.371870000000     0.0411899  
H702     H      0.972610000000     0.431000000000     0.387390000000     0.0398937  
H703     H      0.877420000000     0.333770000000     0.285870000000     0.0397695  
H704     H      0.959480000000     0.134300000000     0.330560000000     0.0414458  
H705     H      0.862960000000     0.166750000000     0.286750000000     0.0353723  
H706     H      0.930640000000     0.230780000000     0.286820000000     0.0399964  
H707     H      0.929920000000     0.121590000000     0.418750000000     0.0397083  
H708     H      0.868790000000     0.181490000000     0.244880000000     0.0432533  
H709     H      0.978860000000     0.181920000000     0.376620000000     0.0354592  
H710     H      0.914020000000     0.115140000000     0.377120000000     0.0348408  
H711     H      0.008280000000     0.154480000000     0.407430000000     0.0447861  
H712     H      0.901770000000     0.260820000000     0.256400000000     0.0388216  
H713     H      0.939950000000     0.153960000000     0.292310000000     0.046122   
H714     H      0.834680000000     0.195640000000     0.256060000000     0.0460155  
H715     H      0.903030000000     0.192630000000     0.370800000000     0.0448706  
H716     H      0.854900000000     0.203740000000     0.296320000000     0.0376537  
H717     H      0.942840000000     0.086760000000     0.407860000000     0.0458651  
H718     H      0.988730000000     0.145420000000     0.366870000000     0.0389576  
H719     H      0.950650000000     0.106200000000     0.367150000000     0.0381476  
H720     H      0.883610000000     0.212390000000     0.332570000000     0.0409416  
H721     H      0.894310000000     0.240770000000     0.296000000000     0.0396555  
H722     H      0.973130000000     0.166320000000     0.418400000000     0.0396806  
H723     H      0.638490000000     0.464030000000     0.330390000000     0.0419279  
H724     H      0.736050000000     0.432450000000     0.286560000000     0.0351964  
H725     H      0.667570000000     0.369320000000     0.285030000000     0.0401211  
H726     H      0.668710000000     0.474040000000     0.418790000000     0.0394849  
H727     H      0.730630000000     0.418990000000     0.244370000000     0.0418661  
H728     H      0.617990000000     0.416390000000     0.375750000000     0.0354376  
H729     H      0.684660000000     0.481320000000     0.377280000000     0.0351784  
H730     H      0.589220000000     0.444240000000     0.406940000000     0.0475227  
H731     H      0.696040000000     0.339930000000     0.254100000000     0.0391735  
H732     H      0.658580000000     0.445580000000     0.291910000000     0.0460594  
H733     H      0.764320000000     0.403820000000     0.255520000000     0.0456272  
H734     H      0.694520000000     0.404570000000     0.369890000000     0.0447981  
H735     H      0.743540000000     0.395120000000     0.295500000000     0.0375178  
H736     H      0.656970000000     0.509560000000     0.408640000000     0.0469806  
H737     H      0.609180000000     0.453360000000     0.366570000000     0.0399575  
H738     H      0.648240000000     0.491460000000     0.367570000000     0.0390618  
H739     H      0.714500000000     0.386040000000     0.331420000000     0.0409406  
H740     H      0.703720000000     0.358620000000     0.294150000000     0.039984   
H741     H      0.623840000000     0.430770000000     0.417820000000     0.0395984  
H742     H      0.921530000000     0.413460000000     0.032600000000     0.0413515  
H743     H      0.924300000000     0.353070000000     0.114610000000     0.035287   
H744     H      0.853900000000     0.413370000000     0.106890000000     0.0396667  
H745     H      0.016420000000     0.470920000000     0.036460000000     0.0418679  
H746     H      0.880720000000     0.324700000000     0.122770000000     0.0404262  
H747     H      0.924790000000     0.488210000000     0.042920000000     0.034681   
H748     H      0.992800000000     0.424830000000     0.044730000000     0.0351489  
H749     H      0.948610000000     0.512340000000     0.006750000000     0.0457312  
H750     H      0.828330000000     0.390080000000     0.142600000000     0.0386951  
H751     H      0.892110000000     0.381520000000     0.059040000000     0.0456376  
H752     H      0.899640000000     0.330390000000     0.150890000000     0.0459305  
H753     H      0.955740000000     0.458080000000     0.095560000000     0.0453378  
H754     H      0.916380000000     0.378670000000     0.138690000000     0.038257   
H755     H      0.017310000000     0.449170000000     0.009330000000     0.046843   
H756     H      0.930150000000     0.464080000000     0.017360000000     0.0379555  
H757     H      0.969690000000     0.427730000000     0.018250000000     0.0378994  
H758     H      0.925990000000     0.426430000000     0.121980000000     0.0415442  
H759     H      0.875010000000     0.412810000000     0.134320000000     0.041      
H760     H      0.968920000000     0.515360000000     0.034500000000     0.0398836  
H761     H      0.638050000000     0.138160000000     0.581100000000     0.0410938  
H762     H      0.736240000000     0.172410000000     0.619380000000     0.0350616  
H763     H      0.669720000000     0.237570000000     0.619520000000     0.0397646  
H764     H      0.664460000000     0.121680000000     0.492530000000     0.0423363  
H765     H      0.733000000000     0.187650000000     0.661070000000     0.043329   
H766     H      0.614510000000     0.182010000000     0.534960000000     0.0349573  
H767     H      0.682010000000     0.117960000000     0.533740000000     0.0347937  
H768     H      0.584520000000     0.151620000000     0.506250000000     0.0460718  
H769     H      0.700200000000     0.267800000000     0.648880000000     0.0387863  
H770     H      0.659680000000     0.159790000000     0.617780000000     0.0459814  
H771     H      0.766200000000     0.202350000000     0.648550000000     0.0456087  
H772     H      0.691340000000     0.195020000000     0.536650000000     0.0451763  
H773     H      0.744240000000     0.209090000000     0.608980000000     0.0366666  
H774     H      0.652600000000     0.087240000000     0.504960000000     0.0468248  
H775     H      0.606950000000     0.145430000000     0.545840000000     0.0373843  
H776     H      0.646180000000     0.108170000000     0.545090000000     0.0372247  
H777     H      0.713020000000     0.216600000000     0.573360000000     0.0408846  
H778     H      0.706090000000     0.246390000000     0.609660000000     0.0389189  
H779     H      0.617840000000     0.165750000000     0.493380000000     0.0415884  
H780     H      0.708120000000     0.213940000000     0.826850000000     0.0412428  
H781     H      0.612550000000     0.181990000000     0.872030000000     0.0353123  
H782     H      0.679770000000     0.117490000000     0.870440000000     0.0397658  
H783     H      0.677760000000     0.226940000000     0.739080000000     0.0414476  
H784     H      0.619520000000     0.167040000000     0.913700000000     0.0419561  
H785     H      0.726060000000     0.165990000000     0.780550000000     0.0351211  
H786     H      0.661830000000     0.233420000000     0.780760000000     0.0354756  
H787     H      0.755480000000     0.193270000000     0.749760000000     0.0465858  
H788     H      0.651550000000     0.087490000000     0.901270000000     0.0383038  
H789     H      0.689340000000     0.194270000000     0.865320000000     0.0457879  
H790     H      0.584970000000     0.153200000000     0.903150000000     0.0456888  
H791     H      0.650360000000     0.156180000000     0.787300000000     0.045138   
H792     H      0.603970000000     0.145080000000     0.862520000000     0.0378321  
H793     H      0.690600000000     0.261770000000     0.750050000000     0.0471158  
H794     H      0.736510000000     0.202250000000     0.790540000000     0.0385072  
H795     H      0.698550000000     0.242080000000     0.790700000000     0.0383374  
H796     H      0.631660000000     0.136430000000     0.825770000000     0.0410887  
H797     H      0.643100000000     0.107810000000     0.861930000000     0.0398408  
H798     H      0.719910000000     0.182400000000     0.738970000000     0.0404968  
H799     H      0.672000000000     0.436820000000     0.628380000000     0.0420086  
H800     H      0.672920000000     0.498750000000     0.547380000000     0.0351556  
H801     H      0.601590000000     0.439600000000     0.555690000000     0.0397234  
H802     H      0.765180000000     0.377350000000     0.621190000000     0.0411565  
H803     H      0.629170000000     0.527390000000     0.539910000000     0.0401167  
H804     H      0.673540000000     0.362140000000     0.616850000000     0.0351498  
H805     H      0.742600000000     0.424390000000     0.614370000000     0.0351649  
H806     H      0.698140000000     0.336640000000     0.651890000000     0.0477771  
H807     H      0.576080000000     0.463120000000     0.520100000000     0.038932   
H808     H      0.642180000000     0.469730000000     0.603050000000     0.0458792  
H809     H      0.648180000000     0.522310000000     0.511740000000     0.0463928  
H810     H      0.703140000000     0.392740000000     0.564080000000     0.044995   
H811     H      0.664360000000     0.473480000000     0.523190000000     0.0386087  
H812     H      0.768190000000     0.398710000000     0.648480000000     0.0476055  
H813     H      0.680160000000     0.385580000000     0.642660000000     0.0394912  
H814     H      0.720430000000     0.421310000000     0.641390000000     0.0391636  
H815     H      0.673040000000     0.425310000000     0.538790000000     0.0414135  
H816     H      0.622320000000     0.439560000000     0.528050000000     0.0412239  
H817     H      0.717740000000     0.334320000000     0.623720000000     0.0390655  
H818     H      0.965240000000     0.133860000000     0.588500000000     0.0411815  
H819     H      0.928720000000     0.233400000000     0.622860000000     0.0354537  
H820     H      0.864360000000     0.166140000000     0.624600000000     0.039578   
H821     H      0.984540000000     0.158390000000     0.499660000000     0.0420335  
H822     H      0.912550000000     0.232330000000     0.664390000000     0.0444676  
H823     H      0.923260000000     0.107610000000     0.542460000000     0.0346621  
H824     H      0.986500000000     0.175720000000     0.540730000000     0.0353256  
H825     H      0.954980000000     0.077270000000     0.514530000000     0.0450938  
H826     H      0.833110000000     0.197960000000     0.652300000000     0.0382498  
H827     H      0.942320000000     0.156850000000     0.624120000000     0.0462479  
H828     H      0.897790000000     0.264610000000     0.650360000000     0.0461034  
H829     H      0.908850000000     0.184240000000     0.541440000000     0.0451207  
H830     H      0.892240000000     0.240350000000     0.611590000000     0.0368737  
H831     H      0.018040000000     0.145230000000     0.512780000000     0.0438151  
H832     H      0.959910000000     0.101020000000     0.553500000000     0.0367602  
H833     H      0.996200000000     0.140090000000     0.552490000000     0.0372303  
H834     H      0.885920000000     0.207210000000     0.577040000000     0.0408851  
H835     H      0.855360000000     0.201790000000     0.613170000000     0.0388313  
H836     H      0.938870000000     0.109160000000     0.500920000000     0.0420819  
H837     H      0.934430000000     0.429650000000     0.782460000000     0.0415769  
H838     H      0.934650000000     0.493860000000     0.859040000000     0.0349718  
H839     H      0.997080000000     0.424830000000     0.862490000000     0.0400091  
H840     H      0.833550000000     0.382150000000     0.783870000000     0.0396413  
H841     H      0.980680000000     0.517150000000     0.868700000000     0.0413843  
H842     H      0.923540000000     0.357090000000     0.794770000000     0.035107   
H843     H      0.861090000000     0.425980000000     0.792520000000     0.0347831  
H844     H      0.899570000000     0.333240000000     0.758970000000     0.0465528  
H845     H      0.019480000000     0.448660000000     0.899910000000     0.0375943  
H846     H      0.966520000000     0.458630000000     0.809070000000     0.0460632  
H847     H      0.957420000000     0.518170000000     0.894910000000     0.0461101  
H848     H      0.892150000000     0.392170000000     0.845280000000     0.0447555  
H849     H      0.936290000000     0.470650000000     0.885560000000     0.0381966  
H850     H      0.837070000000     0.402530000000     0.756160000000     0.0450407  
H851     H      0.921340000000     0.380370000000     0.768330000000     0.0385004  
H852     H      0.885360000000     0.420300000000     0.767090000000     0.0380153  
H853     H      0.924200000000     0.421140000000     0.871870000000     0.0411921  
H854     H      0.972610000000     0.431000000000     0.887390000000     0.0398944  
H855     H      0.877420000000     0.333770000000     0.785870000000     0.0397697  
H856     H      0.959480000000     0.134300000000     0.830560000000     0.041445   
H857     H      0.862960000000     0.166750000000     0.786750000000     0.0353692  
H858     H      0.930640000000     0.230780000000     0.786820000000     0.0399962  
H859     H      0.929920000000     0.121590000000     0.918750000000     0.0397119  
H860     H      0.868790000000     0.181490000000     0.744890000000     0.0432651  
H861     H      0.978860000000     0.181920000000     0.876620000000     0.0354598  
H862     H      0.914020000000     0.115140000000     0.877120000000     0.0348416  
H863     H      0.008280000000     0.154480000000     0.907430000000     0.0447801  
H864     H      0.901770000000     0.260820000000     0.756400000000     0.0388219  
H865     H      0.939950000000     0.153960000000     0.792310000000     0.0461216  
H866     H      0.834680000000     0.195640000000     0.756060000000     0.0460238  
H867     H      0.903030000000     0.192630000000     0.870800000000     0.0448714  
H868     H      0.854900000000     0.203740000000     0.796320000000     0.0376523  
H869     H      0.942840000000     0.086760000000     0.907860000000     0.0458595  
H870     H      0.988730000000     0.145420000000     0.866870000000     0.038955   
H871     H      0.950650000000     0.106200000000     0.867150000000     0.0381452  
H872     H      0.883610000000     0.212390000000     0.832570000000     0.0409419  
H873     H      0.894310000000     0.240770000000     0.796000000000     0.0396556  
H874     H      0.973130000000     0.166320000000     0.918400000000     0.0396842  
H875     H      0.638490000000     0.464030000000     0.830390000000     0.0419276  
H876     H      0.736050000000     0.432450000000     0.786560000000     0.0351967  
H877     H      0.667570000000     0.369320000000     0.785030000000     0.0401288  
H878     H      0.668710000000     0.474040000000     0.918790000000     0.0394852  
H879     H      0.730630000000     0.418990000000     0.744370000000     0.0418657  
H880     H      0.617990000000     0.416390000000     0.875750000000     0.035438   
H881     H      0.684660000000     0.481320000000     0.877280000000     0.0351921  
H882     H      0.589220000000     0.444240000000     0.906940000000     0.047523   
H883     H      0.696040000000     0.339930000000     0.754100000000     0.0391663  
H884     H      0.658580000000     0.445580000000     0.791910000000     0.0460595  
H885     H      0.764320000000     0.403820000000     0.755520000000     0.0456268  
H886     H      0.694520000000     0.404570000000     0.869890000000     0.0447982  
H887     H      0.743540000000     0.395120000000     0.795500000000     0.0375194  
H888     H      0.656970000000     0.509560000000     0.908640000000     0.0469787  
H889     H      0.609180000000     0.453360000000     0.866570000000     0.0399575  
H890     H      0.648240000000     0.491460000000     0.867570000000     0.0390789  
H891     H      0.714500000000     0.386040000000     0.831430000000     0.04094    
H892     H      0.703720000000     0.358620000000     0.794140000000     0.0400066  
H893     H      0.623840000000     0.430770000000     0.917820000000     0.0395995  
H894     H      0.921530000000     0.413460000000     0.532600000000     0.0413532  
H895     H      0.924300000000     0.353070000000     0.614610000000     0.0352871  
H896     H      0.853900000000     0.413370000000     0.606890000000     0.0396669  
H897     H      0.016420000000     0.470920000000     0.536460000000     0.0418692  
H898     H      0.880720000000     0.324700000000     0.622770000000     0.0404269  
H899     H      0.924790000000     0.488210000000     0.542920000000     0.0346714  
H900     H      0.992800000000     0.424830000000     0.544730000000     0.0351496  
H901     H      0.948610000000     0.512340000000     0.506750000000     0.0457399  
H902     H      0.828330000000     0.390080000000     0.642600000000     0.0387058  
H903     H      0.892110000000     0.381520000000     0.559040000000     0.0456385  
H904     H      0.899640000000     0.330390000000     0.650890000000     0.0459309  
H905     H      0.955740000000     0.458080000000     0.595560000000     0.045338   
H906     H      0.916380000000     0.378670000000     0.638690000000     0.038257   
H907     H      0.017310000000     0.449170000000     0.509330000000     0.0468463  
H908     H      0.930150000000     0.464080000000     0.517360000000     0.0379347  
H909     H      0.969690000000     0.427730000000     0.518250000000     0.0379007  
H910     H      0.925990000000     0.426430000000     0.621980000000     0.0415441  
H911     H      0.875010000000     0.412810000000     0.634320000000     0.0410012  
H912     H      0.968920000000     0.515360000000     0.534500000000     0.039891   
H913     H      0.638050000000     0.638160000000     0.081100000000     0.0412378  
H914     H      0.736240000000     0.672410000000     0.119380000000     0.0351883  
H915     H      0.669720000000     0.737570000000     0.119520000000     0.0397512  
H916     H      0.664460000000     0.621680000000     0.992530000000     0.0424283  
H917     H      0.733000000000     0.687650000000     0.161070000000     0.0434313  
H918     H      0.614510000000     0.682010000000     0.034960000000     0.0349483  
H919     H      0.682010000000     0.617960000000     0.033740000000     0.0349722  
H920     H      0.584520000000     0.651620000000     0.006250000000     0.0461198  
H921     H      0.700200000000     0.767800000000     0.148880000000     0.0387878  
H922     H      0.659680000000     0.659790000000     0.117780000000     0.046114   
H923     H      0.766200000000     0.702350000000     0.148550000000     0.0456643  
H924     H      0.691340000000     0.695020000000     0.036650000000     0.0451938  
H925     H      0.744240000000     0.709090000000     0.108980000000     0.0366885  
H926     H      0.652600000000     0.587240000000     0.004960000000     0.0470108  
H927     H      0.606950000000     0.645430000000     0.045840000000     0.037449   
H928     H      0.646180000000     0.608170000000     0.045090000000     0.0374112  
H929     H      0.713020000000     0.716600000000     0.073360000000     0.0408925  
H930     H      0.706090000000     0.746390000000     0.109660000000     0.0388895  
H931     H      0.617840000000     0.665750000000     0.993380000000     0.0416255  
H932     H      0.708120000000     0.713940000000     0.326850000000     0.0412532  
H933     H      0.612550000000     0.681990000000     0.372030000000     0.0353176  
H934     H      0.679770000000     0.617490000000     0.370440000000     0.0399543  
H935     H      0.677760000000     0.726940000000     0.239080000000     0.0414723  
H936     H      0.619520000000     0.667040000000     0.413700000000     0.0419354  
H937     H      0.726060000000     0.665990000000     0.280550000000     0.0352656  
H938     H      0.661830000000     0.733420000000     0.280760000000     0.0354871  
H939     H      0.755480000000     0.693270000000     0.249760000000     0.0466569  
H940     H      0.651550000000     0.587490000000     0.401270000000     0.0385297  
H941     H      0.689340000000     0.694270000000     0.365320000000     0.0458023  
H942     H      0.584970000000     0.653200000000     0.403150000000     0.0457021  
H943     H      0.650360000000     0.656180000000     0.287300000000     0.0452803  
H944     H      0.603970000000     0.645080000000     0.362520000000     0.0379182  
H945     H      0.690600000000     0.761780000000     0.250050000000     0.0470984  
H946     H      0.736510000000     0.702250000000     0.290540000000     0.0385368  
H947     H      0.698550000000     0.742080000000     0.290700000000     0.0383323  
H948     H      0.631660000000     0.636430000000     0.325770000000     0.0412457  
H949     H      0.643100000000     0.607810000000     0.361930000000     0.0400646  
H950     H      0.719910000000     0.682400000000     0.238970000000     0.0406074  
H951     H      0.672000000000     0.936820000000     0.128380000000     0.0421521  
H952     H      0.672920000000     0.998750000000     0.047380000000     0.035301   
H953     H      0.601590000000     0.939590000000     0.055690000000     0.0396531  
H954     H      0.765180000000     0.877350000000     0.121190000000     0.0411797  
H955     H      0.629170000000     0.027390000000     0.039910000000     0.0402176  
H956     H      0.673540000000     0.862140000000     0.116850000000     0.0351574  
H957     H      0.742600000000     0.924390000000     0.114370000000     0.0353468  
H958     H      0.698140000000     0.836640000000     0.151890000000     0.0477789  
H959     H      0.576080000000     0.963120000000     0.020100000000     0.0391214  
H960     H      0.642180000000     0.969730000000     0.103050000000     0.0461828  
H961     H      0.648180000000     0.022310000000     0.011740000000     0.0467018  
H962     H      0.703140000000     0.892740000000     0.064080000000     0.0450315  
H963     H      0.664360000000     0.973480000000     0.023190000000     0.0384847  
H964     H      0.768190000000     0.898710000000     0.148480000000     0.0476961  
H965     H      0.680160000000     0.885580000000     0.142660000000     0.0395389  
H966     H      0.720430000000     0.921310000000     0.141390000000     0.0393117  
H967     H      0.673040000000     0.925310000000     0.038790000000     0.0415005  
H968     H      0.622320000000     0.939560000000     0.028050000000     0.041216   
H969     H      0.717740000000     0.834320000000     0.123720000000     0.0390581  
H970     H      0.965240000000     0.633860000000     0.088500000000     0.041345   
H971     H      0.928720000000     0.733400000000     0.122860000000     0.0354579  
H972     H      0.864360000000     0.666140000000     0.124600000000     0.0397037  
H973     H      0.984540000000     0.658390000000     0.999660000000     0.0420367  
H974     H      0.912550000000     0.732330000000     0.164390000000     0.044485   
H975     H      0.923260000000     0.607610000000     0.042460000000     0.0348648  
H976     H      0.986500000000     0.675720000000     0.040730000000     0.0353273  
H977     H      0.954980000000     0.577270000000     0.014530000000     0.0452585  
H978     H      0.833110000000     0.697960000000     0.152300000000     0.0383094  
H979     H      0.942320000000     0.656850000000     0.124120000000     0.0464146  
H980     H      0.897790000000     0.764610000000     0.150360000000     0.0461024  
H981     H      0.908850000000     0.684240000000     0.041440000000     0.0451462  
H982     H      0.892240000000     0.740350000000     0.111590000000     0.0368665  
H983     H      0.018040000000     0.645230000000     0.012780000000     0.0438383  
H984     H      0.959910000000     0.601020000000     0.053500000000     0.0369603  
H985     H      0.996200000000     0.640090000000     0.052490000000     0.0373119  
H986     H      0.885920000000     0.707210000000     0.077040000000     0.0409009  
H987     H      0.855360000000     0.701790000000     0.113170000000     0.0388571  
H988     H      0.938870000000     0.609160000000     0.000920000000     0.0421708  
H989     H      0.934430000000     0.929650000000     0.282460000000     0.0417128  
H990     H      0.934650000000     0.993860000000     0.359040000000     0.035122   
H991     H      0.997080000000     0.924830000000     0.362490000000     0.0399543  
H992     H      0.833550000000     0.882150000000     0.283870000000     0.0396782  
H993     H      0.980680000000     0.017150000000     0.368700000000     0.0414259  
H994     H      0.923540000000     0.857090000000     0.294770000000     0.0351118  
H995     H      0.861090000000     0.925980000000     0.292520000000     0.0349778  
H996     H      0.899570000000     0.833240000000     0.258970000000     0.0465569  
H997     H      0.019480000000     0.948660000000     0.399910000000     0.0377842  
H998     H      0.966520000000     0.958630000000     0.309070000000     0.0463138  
H999     H      0.957420000000     0.018170000000     0.394910000000     0.0464037  
H1000    H      0.892150000000     0.892170000000     0.345280000000     0.0448092  
H1001    H      0.936290000000     0.970650000000     0.385560000000     0.0381103  
H1002    H      0.837070000000     0.902530000000     0.256160000000     0.0451471  
H1003    H      0.921340000000     0.880370000000     0.268330000000     0.0385473  
H1004    H      0.885360000000     0.920300000000     0.267090000000     0.0381708  
H1005    H      0.924200000000     0.921140000000     0.371870000000     0.0412863  
H1006    H      0.972610000000     0.931000000000     0.387390000000     0.0399231  
H1007    H      0.877420000000     0.833770000000     0.285870000000     0.0397642  
H1008    H      0.959480000000     0.634300000000     0.330560000000     0.0415869  
H1009    H      0.862960000000     0.666750000000     0.286750000000     0.0355193  
H1010    H      0.930640000000     0.730780000000     0.286820000000     0.0400001  
H1011    H      0.929920000000     0.621590000000     0.418750000000     0.039794   
H1012    H      0.868790000000     0.681490000000     0.244880000000     0.0433157  
H1013    H      0.978860000000     0.681920000000     0.376620000000     0.0354613  
H1014    H      0.914020000000     0.615140000000     0.377120000000     0.0350291  
H1015    H      0.008280000000     0.654480000000     0.407430000000     0.0447968  
H1016    H      0.901770000000     0.760820000000     0.256400000000     0.0388223  
H1017    H      0.939950000000     0.653960000000     0.292310000000     0.0462602  
H1018    H      0.834680000000     0.695640000000     0.256060000000     0.0460414  
H1019    H      0.903030000000     0.692630000000     0.370800000000     0.0448934  
H1020    H      0.854900000000     0.703740000000     0.296320000000     0.0376903  
H1021    H      0.942840000000     0.586760000000     0.407860000000     0.0460606  
H1022    H      0.988730000000     0.645420000000     0.366870000000     0.0390254  
H1023    H      0.950650000000     0.606200000000     0.367150000000     0.038328   
H1024    H      0.883610000000     0.712390000000     0.332570000000     0.040952   
H1025    H      0.894310000000     0.740770000000     0.296000000000     0.0396477  
H1026    H      0.973130000000     0.666320000000     0.418400000000     0.0396746  
H1027    H      0.638490000000     0.964030000000     0.330390000000     0.0421536  
H1028    H      0.736050000000     0.932450000000     0.286560000000     0.0354029  
H1029    H      0.667570000000     0.869320000000     0.285030000000     0.0401287  
H1030    H      0.668710000000     0.974040000000     0.418790000000     0.0392546  
H1031    H      0.730630000000     0.918990000000     0.244370000000     0.0420269  
H1032    H      0.617990000000     0.916390000000     0.375750000000     0.03546    
H1033    H      0.684660000000     0.981320000000     0.377280000000     0.035818   
H1034    H      0.589220000000     0.944240000000     0.406940000000     0.0474907  
H1035    H      0.696040000000     0.839930000000     0.254100000000     0.0391759  
H1036    H      0.658580000000     0.945580000000     0.291910000000     0.0462624  
H1037    H      0.764320000000     0.903820000000     0.255520000000     0.0457217  
H1038    H      0.694520000000     0.904570000000     0.369890000000     0.0448602  
H1039    H      0.743540000000     0.895120000000     0.295500000000     0.0375645  
H1040    H      0.656970000000     0.009560000000     0.408640000000     0.0448262  
H1041    H      0.609180000000     0.953360000000     0.366570000000     0.0400867  
H1042    H      0.648240000000     0.991460000000     0.367570000000     0.0397419  
H1043    H      0.714500000000     0.886040000000     0.331420000000     0.0409661  
H1044    H      0.703720000000     0.858620000000     0.294150000000     0.0399749  
H1045    H      0.623840000000     0.930770000000     0.417820000000     0.0395971  
H1046    H      0.921530000000     0.913460000000     0.032600000000     0.041427   
H1047    H      0.924300000000     0.853070000000     0.114610000000     0.0352926  
H1048    H      0.853900000000     0.913370000000     0.106890000000     0.039823   
H1049    H      0.016420000000     0.970920000000     0.036460000000     0.0421061  
H1050    H      0.880720000000     0.824700000000     0.122770000000     0.0404236  
H1051    H      0.924790000000     0.988210000000     0.042920000000     0.0356275  
H1052    H      0.992800000000     0.924830000000     0.044730000000     0.0352144  
H1053    H      0.948610000000     0.012340000000     0.006750000000     0.0432403  
H1054    H      0.828330000000     0.890080000000     0.142600000000     0.0387704  
H1055    H      0.892110000000     0.881520000000     0.059040000000     0.0456707  
H1056    H      0.899640000000     0.830400000000     0.150890000000     0.0459456  
H1057    H      0.955740000000     0.958080000000     0.095560000000     0.045621   
H1058    H      0.916380000000     0.878670000000     0.138690000000     0.038307   
H1059    H      0.017310000000     0.949170000000     0.009330000000     0.0469264  
H1060    H      0.930150000000     0.964080000000     0.017360000000     0.0385963  
H1061    H      0.969690000000     0.927730000000     0.018250000000     0.0379952  
H1062    H      0.925990000000     0.926430000000     0.121980000000     0.0416803  
H1063    H      0.875010000000     0.912810000000     0.134320000000     0.0411436  
H1064    H      0.968920000000     0.015360000000     0.034500000000     0.0372494  
H1065    H      0.638050000000     0.638160000000     0.581100000000     0.0412379  
H1066    H      0.736240000000     0.672410000000     0.619380000000     0.0351886  
H1067    H      0.669720000000     0.737570000000     0.619520000000     0.0397658  
H1068    H      0.664460000000     0.621680000000     0.492530000000     0.042415   
H1069    H      0.733000000000     0.687650000000     0.661070000000     0.0434313  
H1070    H      0.614510000000     0.682010000000     0.534960000000     0.0349511  
H1071    H      0.682010000000     0.617960000000     0.533740000000     0.0349749  
H1072    H      0.584520000000     0.651620000000     0.506250000000     0.046119   
H1073    H      0.700200000000     0.767800000000     0.648880000000     0.0387872  
H1074    H      0.659680000000     0.659790000000     0.617780000000     0.0461141  
H1075    H      0.766200000000     0.702350000000     0.648550000000     0.0456642  
H1076    H      0.691340000000     0.695020000000     0.536650000000     0.0451957  
H1077    H      0.744240000000     0.709090000000     0.608980000000     0.0366893  
H1078    H      0.652600000000     0.587240000000     0.504960000000     0.0470091  
H1079    H      0.606950000000     0.645430000000     0.545840000000     0.0374508  
H1080    H      0.646180000000     0.608170000000     0.545090000000     0.037413   
H1081    H      0.713020000000     0.716600000000     0.573360000000     0.0408933  
H1082    H      0.706090000000     0.746390000000     0.609660000000     0.0389104  
H1083    H      0.617840000000     0.665750000000     0.493380000000     0.0416131  
H1084    H      0.708120000000     0.713940000000     0.826850000000     0.0412513  
H1085    H      0.612550000000     0.681990000000     0.872030000000     0.0353159  
H1086    H      0.679770000000     0.617490000000     0.870440000000     0.0399523  
H1087    H      0.677760000000     0.726940000000     0.739080000000     0.0414723  
H1088    H      0.619520000000     0.667040000000     0.913700000000     0.0419376  
H1089    H      0.726060000000     0.665990000000     0.780550000000     0.0352655  
H1090    H      0.661830000000     0.733420000000     0.780760000000     0.035487   
H1091    H      0.755480000000     0.693270000000     0.749760000000     0.0466568  
H1092    H      0.651550000000     0.587490000000     0.901270000000     0.0385217  
H1093    H      0.689340000000     0.694270000000     0.865320000000     0.0458045  
H1094    H      0.584970000000     0.653200000000     0.903150000000     0.0457012  
H1095    H      0.650360000000     0.656180000000     0.787300000000     0.0452808  
H1096    H      0.603970000000     0.645080000000     0.862520000000     0.0379154  
H1097    H      0.690600000000     0.761780000000     0.750050000000     0.0470984  
H1098    H      0.736510000000     0.702250000000     0.790540000000     0.0385368  
H1099    H      0.698550000000     0.742080000000     0.790700000000     0.0383322  
H1100    H      0.631660000000     0.636430000000     0.825770000000     0.0412402  
H1101    H      0.643100000000     0.607810000000     0.861930000000     0.040061   
H1102    H      0.719910000000     0.682400000000     0.738970000000     0.0406074  
H1103    H      0.672000000000     0.936820000000     0.628380000000     0.0421521  
H1104    H      0.672920000000     0.998750000000     0.547380000000     0.0353017  
H1105    H      0.601590000000     0.939590000000     0.555690000000     0.0396534  
H1106    H      0.765180000000     0.877350000000     0.621190000000     0.04118    
H1107    H      0.629170000000     0.027390000000     0.539910000000     0.0402187  
H1108    H      0.673540000000     0.862140000000     0.616850000000     0.0351577  
H1109    H      0.742600000000     0.924390000000     0.614370000000     0.0353471  
H1110    H      0.698140000000     0.836640000000     0.651890000000     0.047779   
H1111    H      0.576080000000     0.963120000000     0.520100000000     0.0391244  
H1112    H      0.642180000000     0.969730000000     0.603050000000     0.0461828  
H1113    H      0.648180000000     0.022310000000     0.511740000000     0.0467048  
H1114    H      0.703140000000     0.892740000000     0.564080000000     0.0450325  
H1115    H      0.664360000000     0.973480000000     0.523190000000     0.0384864  
H1116    H      0.768190000000     0.898710000000     0.648480000000     0.0476959  
H1117    H      0.680160000000     0.885580000000     0.642660000000     0.039539   
H1118    H      0.720430000000     0.921310000000     0.641390000000     0.0393118  
H1119    H      0.673040000000     0.925310000000     0.538790000000     0.0415019  
H1120    H      0.622320000000     0.939560000000     0.528050000000     0.0412177  
H1121    H      0.717740000000     0.834320000000     0.623720000000     0.0390583  
H1122    H      0.965240000000     0.633860000000     0.588500000000     0.0413509  
H1123    H      0.928720000000     0.733400000000     0.622860000000     0.035458   
H1124    H      0.864360000000     0.666140000000     0.624600000000     0.0397037  
H1125    H      0.984540000000     0.658390000000     0.499660000000     0.0420238  
H1126    H      0.912550000000     0.732330000000     0.664390000000     0.044485   
H1127    H      0.923260000000     0.607610000000     0.542460000000     0.0348651  
H1128    H      0.986500000000     0.675720000000     0.540730000000     0.0353296  
H1129    H      0.954980000000     0.577270000000     0.514530000000     0.0452608  
H1130    H      0.833110000000     0.697960000000     0.652300000000     0.0383095  
H1131    H      0.942320000000     0.656850000000     0.624120000000     0.0463691  
H1132    H      0.897790000000     0.764610000000     0.650360000000     0.0461024  
H1133    H      0.908850000000     0.684240000000     0.541440000000     0.045151   
H1134    H      0.892240000000     0.740350000000     0.611590000000     0.0368673  
H1135    H      0.018040000000     0.645230000000     0.512780000000     0.0438377  
H1136    H      0.959910000000     0.601020000000     0.553500000000     0.0369603  
H1137    H      0.996200000000     0.640090000000     0.552490000000     0.037313   
H1138    H      0.885920000000     0.707210000000     0.577040000000     0.0408962  
H1139    H      0.855360000000     0.701790000000     0.613170000000     0.0388578  
H1140    H      0.938870000000     0.609160000000     0.500920000000     0.0421724  
H1141    H      0.934430000000     0.929650000000     0.782460000000     0.0417156  
H1142    H      0.934650000000     0.993860000000     0.859040000000     0.0351219  
H1143    H      0.997080000000     0.924830000000     0.862490000000     0.0399546  
H1144    H      0.833550000000     0.882150000000     0.783870000000     0.0396784  
H1145    H      0.980680000000     0.017150000000     0.868700000000     0.0414236  
H1146    H      0.923540000000     0.857090000000     0.794770000000     0.0351117  
H1147    H      0.861090000000     0.925980000000     0.792520000000     0.0349776  
H1148    H      0.899570000000     0.833240000000     0.758970000000     0.0465569  
H1149    H      0.019480000000     0.948660000000     0.899910000000     0.0377847  
H1150    H      0.966520000000     0.958630000000     0.809070000000     0.0463124  
H1151    H      0.957420000000     0.018170000000     0.894910000000     0.0464022  
H1152    H      0.892150000000     0.892170000000     0.845280000000     0.0448057  
H1153    H      0.936290000000     0.970650000000     0.885560000000     0.038111   
H1154    H      0.837070000000     0.902530000000     0.756160000000     0.045147   
H1155    H      0.921340000000     0.880370000000     0.768330000000     0.0385468  
H1156    H      0.885360000000     0.920300000000     0.767090000000     0.0381702  
H1157    H      0.924200000000     0.921140000000     0.871870000000     0.0412885  
H1158    H      0.972610000000     0.931000000000     0.887390000000     0.0399238  
H1159    H      0.877420000000     0.833770000000     0.785870000000     0.0397644  
H1160    H      0.959480000000     0.634300000000     0.830560000000     0.041586   
H1161    H      0.862960000000     0.666750000000     0.786750000000     0.0355162  
H1162    H      0.930640000000     0.730780000000     0.786820000000     0.0399999  
H1163    H      0.929920000000     0.621590000000     0.918750000000     0.0397978  
H1164    H      0.868790000000     0.681490000000     0.744890000000     0.0433275  
H1165    H      0.978860000000     0.681920000000     0.876620000000     0.035462   
H1166    H      0.914020000000     0.615140000000     0.877120000000     0.03503    
H1167    H      0.008280000000     0.654480000000     0.907430000000     0.0447908  
H1168    H      0.901770000000     0.760820000000     0.756400000000     0.0388225  
H1169    H      0.939950000000     0.653960000000     0.792310000000     0.0462598  
H1170    H      0.834680000000     0.695640000000     0.756060000000     0.0460497  
H1171    H      0.903030000000     0.692630000000     0.870800000000     0.0448942  
H1172    H      0.854900000000     0.703740000000     0.796320000000     0.037689   
H1173    H      0.942840000000     0.586760000000     0.907860000000     0.046055   
H1174    H      0.988730000000     0.645420000000     0.866870000000     0.0390228  
H1175    H      0.950650000000     0.606200000000     0.867150000000     0.0383256  
H1176    H      0.883610000000     0.712390000000     0.832570000000     0.0409523  
H1177    H      0.894310000000     0.740770000000     0.796000000000     0.0396478  
H1178    H      0.973130000000     0.666320000000     0.918400000000     0.0396781  
H1179    H      0.638490000000     0.964030000000     0.830390000000     0.0421533  
H1180    H      0.736050000000     0.932450000000     0.786560000000     0.0354032  
H1181    H      0.667570000000     0.869320000000     0.785030000000     0.0401365  
H1182    H      0.668710000000     0.974040000000     0.918790000000     0.0392551  
H1183    H      0.730630000000     0.918990000000     0.744370000000     0.0420266  
H1184    H      0.617990000000     0.916390000000     0.875750000000     0.0354604  
H1185    H      0.684660000000     0.981320000000     0.877280000000     0.0358315  
H1186    H      0.589220000000     0.944240000000     0.906940000000     0.0474909  
H1187    H      0.696040000000     0.839930000000     0.754100000000     0.0391688  
H1188    H      0.658580000000     0.945580000000     0.791910000000     0.0462626  
H1189    H      0.764320000000     0.903820000000     0.755520000000     0.0457213  
H1190    H      0.694520000000     0.904570000000     0.869890000000     0.0448603  
H1191    H      0.743540000000     0.895120000000     0.795500000000     0.0375661  
H1192    H      0.656970000000     0.009560000000     0.908640000000     0.0448246  
H1193    H      0.609180000000     0.953360000000     0.866570000000     0.0400868  
H1194    H      0.648240000000     0.991460000000     0.867570000000     0.039759   
H1195    H      0.714500000000     0.886040000000     0.831430000000     0.0409655  
H1196    H      0.703720000000     0.858620000000     0.794140000000     0.0399974  
H1197    H      0.623840000000     0.930770000000     0.917820000000     0.0395982  
H1198    H      0.921530000000     0.913460000000     0.532600000000     0.0414289  
H1199    H      0.924300000000     0.853070000000     0.614610000000     0.0352927  
H1200    H      0.853900000000     0.913370000000     0.606890000000     0.0398233  
H1201    H      0.016420000000     0.970920000000     0.536460000000     0.0421075  
H1202    H      0.880720000000     0.824700000000     0.622770000000     0.0404243  
H1203    H      0.924790000000     0.988210000000     0.542920000000     0.0356186  
H1204    H      0.992800000000     0.924830000000     0.544730000000     0.0352152  
H1205    H      0.948610000000     0.012340000000     0.506750000000     0.043247   
H1206    H      0.828330000000     0.890080000000     0.642600000000     0.0387812  
H1207    H      0.892110000000     0.881520000000     0.559040000000     0.0456716  
H1208    H      0.899640000000     0.830400000000     0.650890000000     0.045946   
H1209    H      0.955740000000     0.958080000000     0.595560000000     0.0456214  
H1210    H      0.916380000000     0.878670000000     0.638690000000     0.0383069  
H1211    H      0.017310000000     0.949170000000     0.509330000000     0.04693    
H1212    H      0.930150000000     0.964080000000     0.517360000000     0.0385755  
H1213    H      0.969690000000     0.927730000000     0.518250000000     0.0379966  
H1214    H      0.925990000000     0.926430000000     0.621980000000     0.0416803  
H1215    H      0.875010000000     0.912810000000     0.634320000000     0.0411449  
H1216    H      0.968920000000     0.015360000000     0.534500000000     0.0372548  
N1       N      0.231640000000     0.233600000000     0.155470000000    -0.167548   
N2       N      0.199920000000     0.201750000000     0.120320000000    -0.110906   
N3       N      0.151110000000     0.152990000000     0.034110000000    -0.113639   
N4       N      0.118970000000     0.120050000000     0.999980000000    -0.16333    
N5       N      0.119380000000     0.121060000000     0.408020000000    -0.16858    
N6       N      0.149040000000     0.152850000000     0.371450000000    -0.110898   
N7       N      0.191200000000     0.197100000000     0.281170000000    -0.113838   
N8       N      0.223450000000     0.227950000000     0.245700000000    -0.164439   
N9       N      0.107960000000     0.497690000000     0.016040000000    -0.16688    
N10      N      0.137450000000     0.469750000000     0.054930000000    -0.110804   
N11      N      0.208190000000     0.392930000000     0.112100000000    -0.113731   
N12      N      0.237690000000     0.362440000000     0.149410000000    -0.162152   
N13      N      0.366760000000     0.230140000000     0.158180000000    -0.166552   
N14      N      0.399820000000     0.196770000000     0.124680000000    -0.110736   
N15      N      0.451630000000     0.144660000000     0.040840000000    -0.113371   
N16      N      0.484630000000     0.112730000000     0.006560000000    -0.163041   
N17      N      0.494210000000     0.488240000000     0.396650000000    -0.168882   
N18      N      0.466640000000     0.459880000000     0.357250000000    -0.110917   
N19      N      0.391740000000     0.391190000000     0.297140000000    -0.113768   
N20      N      0.362700000000     0.362940000000     0.258590000000    -0.164938   
N21      N      0.369160000000     0.227500000000     0.250370000000    -0.16754    
N22      N      0.399670000000     0.195620000000     0.286610000000    -0.110791   
N23      N      0.443600000000     0.151280000000     0.376510000000    -0.113778   
N24      N      0.475650000000     0.120560000000     0.412360000000    -0.164011   
N25      N      0.229340000000     0.372850000000     0.248910000000    -0.167527   
N26      N      0.198960000000     0.404090000000     0.285670000000    -0.110783   
N27      N      0.154120000000     0.446000000000     0.376130000000    -0.113774   
N28      N      0.123020000000     0.476740000000     0.412600000000    -0.163692   
N29      N      0.359420000000     0.354780000000     0.146240000000    -0.166687   
N30      N      0.389050000000     0.382380000000     0.107230000000    -0.110765   
N31      N      0.459080000000     0.456980000000     0.047390000000    -0.113582   
N32      N      0.487980000000     0.486330000000     0.009040000000    -0.162157   
N33      N      0.231640000000     0.233600000000     0.655470000000    -0.167549   
N34      N      0.199920000000     0.201750000000     0.620320000000    -0.110898   
N35      N      0.151110000000     0.152990000000     0.534110000000    -0.113636   
N36      N      0.118970000000     0.120050000000     0.499980000000    -0.163342   
N37      N      0.119380000000     0.121060000000     0.908020000000    -0.168574   
N38      N      0.149040000000     0.152850000000     0.871450000000    -0.110917   
N39      N      0.191200000000     0.197100000000     0.781170000000    -0.113838   
N40      N      0.223450000000     0.227950000000     0.745700000000    -0.164439   
N41      N      0.107960000000     0.497690000000     0.516040000000    -0.166874   
N42      N      0.137450000000     0.469750000000     0.554930000000    -0.110804   
N43      N      0.208190000000     0.392930000000     0.612100000000    -0.113731   
N44      N      0.237690000000     0.362440000000     0.649410000000    -0.162151   
N45      N      0.366760000000     0.230140000000     0.658180000000    -0.166552   
N46      N      0.399820000000     0.196770000000     0.624680000000    -0.110731   
N47      N      0.451630000000     0.144660000000     0.540840000000    -0.113372   
N48      N      0.484630000000     0.112730000000     0.506560000000    -0.163037   
N49      N      0.494210000000     0.488240000000     0.896650000000    -0.168882   
N50      N      0.466640000000     0.459880000000     0.857250000000    -0.110918   
N51      N      0.391740000000     0.391190000000     0.797140000000    -0.113772   
N52      N      0.362700000000     0.362940000000     0.758590000000    -0.164938   
N53      N      0.369160000000     0.227500000000     0.750370000000    -0.167535   
N54      N      0.399670000000     0.195620000000     0.786610000000    -0.110793   
N55      N      0.443600000000     0.151280000000     0.876510000000    -0.113777   
N56      N      0.475650000000     0.120560000000     0.912360000000    -0.164052   
N57      N      0.229340000000     0.372850000000     0.748910000000    -0.167532   
N58      N      0.198960000000     0.404090000000     0.785670000000    -0.110777   
N59      N      0.154120000000     0.446000000000     0.876130000000    -0.113766   
N60      N      0.123020000000     0.476740000000     0.912600000000    -0.163693   
N61      N      0.359420000000     0.354780000000     0.646240000000    -0.16668    
N62      N      0.389050000000     0.382380000000     0.607230000000    -0.110765   
N63      N      0.459080000000     0.456980000000     0.547390000000    -0.113588   
N64      N      0.487980000000     0.486330000000     0.509040000000    -0.162148   
N65      N      0.231640000000     0.733600000000     0.155470000000    -0.167513   
N66      N      0.199920000000     0.701750000000     0.120320000000    -0.110887   
N67      N      0.151110000000     0.652990000000     0.034110000000    -0.113632   
N68      N      0.118970000000     0.620050000000     0.999980000000    -0.163252   
N69      N      0.119380000000     0.621060000000     0.408020000000    -0.168556   
N70      N      0.149040000000     0.652850000000     0.371450000000    -0.110891   
N71      N      0.191200000000     0.697100000000     0.281170000000    -0.113813   
N72      N      0.223450000000     0.727950000000     0.245700000000    -0.164438   
N73      N      0.107960000000     0.997690000000     0.016040000000    -0.164138   
N74      N      0.137450000000     0.969750000000     0.054930000000    -0.110961   
N75      N      0.208190000000     0.892930000000     0.112100000000    -0.113713   
N76      N      0.237690000000     0.862440000000     0.149410000000    -0.162148   
N77      N      0.366760000000     0.730140000000     0.158180000000    -0.166546   
N78      N      0.399820000000     0.696770000000     0.124680000000    -0.11072    
N79      N      0.451630000000     0.644660000000     0.040840000000    -0.113357   
N80      N      0.484630000000     0.612730000000     0.006560000000    -0.163018   
N81      N      0.494210000000     0.988240000000     0.396650000000    -0.166157   
N82      N      0.466640000000     0.959880000000     0.357250000000    -0.111066   
N83      N      0.391740000000     0.891190000000     0.297140000000    -0.11375    
N84      N      0.362700000000     0.862940000000     0.258590000000    -0.164931   
N85      N      0.369160000000     0.727500000000     0.250370000000    -0.167553   
N86      N      0.399670000000     0.695620000000     0.286610000000    -0.110765   
N87      N      0.443600000000     0.651280000000     0.376510000000    -0.113765   
N88      N      0.475650000000     0.620560000000     0.412360000000    -0.163991   
N89      N      0.229340000000     0.872850000000     0.248910000000    -0.167513   
N90      N      0.198960000000     0.904090000000     0.285670000000    -0.11075    
N91      N      0.154120000000     0.946000000000     0.376130000000    -0.113653   
N92      N      0.123020000000     0.976740000000     0.412600000000    -0.164217   
N93      N      0.359420000000     0.854780000000     0.146240000000    -0.166679   
N94      N      0.389050000000     0.882380000000     0.107230000000    -0.110753   
N95      N      0.459080000000     0.956980000000     0.047390000000    -0.113287   
N96      N      0.487980000000     0.986330000000     0.009040000000    -0.161128   
N97      N      0.231640000000     0.733600000000     0.655470000000    -0.167513   
N98      N      0.199920000000     0.701750000000     0.620320000000    -0.110879   
N99      N      0.151110000000     0.652990000000     0.534110000000    -0.113629   
N100     N      0.118970000000     0.620050000000     0.499980000000    -0.163265   
N101     N      0.119380000000     0.621060000000     0.908020000000    -0.168551   
N102     N      0.149040000000     0.652850000000     0.871450000000    -0.110909   
N103     N      0.191200000000     0.697100000000     0.781170000000    -0.113813   
N104     N      0.223450000000     0.727950000000     0.745700000000    -0.164438   
N105     N      0.107960000000     0.997690000000     0.516040000000    -0.16413    
N106     N      0.137450000000     0.969750000000     0.554930000000    -0.110962   
N107     N      0.208190000000     0.892930000000     0.612100000000    -0.113713   
N108     N      0.237690000000     0.862440000000     0.649410000000    -0.162148   
N109     N      0.366760000000     0.730140000000     0.658180000000    -0.166546   
N110     N      0.399820000000     0.696770000000     0.624680000000    -0.110716   
N111     N      0.451630000000     0.644660000000     0.540840000000    -0.113359   
N112     N      0.484630000000     0.612730000000     0.506560000000    -0.163014   
N113     N      0.494210000000     0.988240000000     0.896650000000    -0.166158   
N114     N      0.466640000000     0.959880000000     0.857250000000    -0.111066   
N115     N      0.391740000000     0.891190000000     0.797140000000    -0.113754   
N116     N      0.362700000000     0.862940000000     0.758590000000    -0.164931   
N117     N      0.369160000000     0.727500000000     0.750370000000    -0.167547   
N118     N      0.399670000000     0.695620000000     0.786610000000    -0.110767   
N119     N      0.443600000000     0.651280000000     0.876510000000    -0.113763   
N120     N      0.475650000000     0.620560000000     0.912360000000    -0.164033   
N121     N      0.229340000000     0.872850000000     0.748910000000    -0.167518   
N122     N      0.198960000000     0.904090000000     0.785670000000    -0.110745   
N123     N      0.154120000000     0.946000000000     0.876130000000    -0.113645   
N124     N      0.123020000000     0.976740000000     0.912600000000    -0.164217   
N125     N      0.359420000000     0.854780000000     0.646240000000    -0.166673   
N126     N      0.389050000000     0.882380000000     0.607230000000    -0.110753   
N127     N      0.459080000000     0.956980000000     0.547390000000    -0.113292   
N128     N      0.487980000000     0.986330000000     0.509040000000    -0.161118   
N129     N      0.731630000000     0.233600000000     0.155470000000    -0.167503   
N130     N      0.699920000000     0.201750000000     0.120320000000    -0.110896   
N131     N      0.651110000000     0.152990000000     0.034110000000    -0.113629   
N132     N      0.618970000000     0.120050000000     0.999980000000    -0.163317   
N133     N      0.619380000000     0.121060000000     0.408020000000    -0.168567   
N134     N      0.649030000000     0.152850000000     0.371450000000    -0.110889   
N135     N      0.691200000000     0.197100000000     0.281170000000    -0.113813   
N136     N      0.723450000000     0.227950000000     0.245700000000    -0.164443   
N137     N      0.607960000000     0.497690000000     0.016040000000    -0.166854   
N138     N      0.637450000000     0.469750000000     0.054930000000    -0.110795   
N139     N      0.708180000000     0.392930000000     0.112100000000    -0.113742   
N140     N      0.737690000000     0.362440000000     0.149410000000    -0.16209    
N141     N      0.866760000000     0.230140000000     0.158180000000    -0.166548   
N142     N      0.899820000000     0.196770000000     0.124680000000    -0.110712   
N143     N      0.951630000000     0.144660000000     0.040840000000    -0.113291   
N144     N      0.984630000000     0.112730000000     0.006560000000    -0.163382   
N145     N      0.994210000000     0.488240000000     0.396650000000    -0.167062   
N146     N      0.966640000000     0.459880000000     0.357250000000    -0.11097    
N147     N      0.891740000000     0.391190000000     0.297140000000    -0.113756   
N148     N      0.862700000000     0.362940000000     0.258590000000    -0.16493    
N149     N      0.869160000000     0.227500000000     0.250370000000    -0.167533   
N150     N      0.899670000000     0.195620000000     0.286610000000    -0.110776   
N151     N      0.943600000000     0.151280000000     0.376510000000    -0.113701   
N152     N      0.975650000000     0.120560000000     0.412360000000    -0.16435    
N153     N      0.729340000000     0.372850000000     0.248910000000    -0.16752    
N154     N      0.698960000000     0.404090000000     0.285670000000    -0.110772   
N155     N      0.654120000000     0.446000000000     0.376130000000    -0.113761   
N156     N      0.623020000000     0.476740000000     0.412600000000    -0.163682   
N157     N      0.859420000000     0.354780000000     0.146240000000    -0.166684   
N158     N      0.889050000000     0.382380000000     0.107230000000    -0.110752   
N159     N      0.959080000000     0.456980000000     0.047390000000    -0.113675   
N160     N      0.987980000000     0.486330000000     0.009040000000    -0.160308   
N161     N      0.731630000000     0.233600000000     0.655470000000    -0.167503   
N162     N      0.699920000000     0.201750000000     0.620320000000    -0.110888   
N163     N      0.651110000000     0.152990000000     0.534110000000    -0.113627   
N164     N      0.618970000000     0.120050000000     0.499980000000    -0.163329   
N165     N      0.619380000000     0.121060000000     0.908020000000    -0.168561   
N166     N      0.649030000000     0.152850000000     0.871450000000    -0.110908   
N167     N      0.691200000000     0.197100000000     0.781170000000    -0.113813   
N168     N      0.723450000000     0.227950000000     0.745700000000    -0.164443   
N169     N      0.607960000000     0.497690000000     0.516040000000    -0.166847   
N170     N      0.637450000000     0.469750000000     0.554930000000    -0.110795   
N171     N      0.708180000000     0.392930000000     0.612100000000    -0.113742   
N172     N      0.737690000000     0.362440000000     0.649410000000    -0.16209    
N173     N      0.866760000000     0.230140000000     0.658180000000    -0.166548   
N174     N      0.899820000000     0.196770000000     0.624680000000    -0.110708   
N175     N      0.951630000000     0.144660000000     0.540840000000    -0.113292   
N176     N      0.984630000000     0.112730000000     0.506560000000    -0.163378   
N177     N      0.994210000000     0.488240000000     0.896650000000    -0.167062   
N178     N      0.966640000000     0.459880000000     0.857250000000    -0.110971   
N179     N      0.891740000000     0.391190000000     0.797140000000    -0.11376    
N180     N      0.862700000000     0.362940000000     0.758590000000    -0.16493    
N181     N      0.869160000000     0.227500000000     0.750370000000    -0.167528   
N182     N      0.899670000000     0.195620000000     0.786610000000    -0.110778   
N183     N      0.943600000000     0.151280000000     0.876510000000    -0.1137     
N184     N      0.975650000000     0.120560000000     0.912360000000    -0.164391   
N185     N      0.729340000000     0.372850000000     0.748910000000    -0.167525   
N186     N      0.698960000000     0.404090000000     0.785670000000    -0.110767   
N187     N      0.654120000000     0.446000000000     0.876130000000    -0.113753   
N188     N      0.623020000000     0.476740000000     0.912600000000    -0.163683   
N189     N      0.859420000000     0.354780000000     0.646240000000    -0.166677   
N190     N      0.889050000000     0.382380000000     0.607230000000    -0.110752   
N191     N      0.959080000000     0.456980000000     0.547390000000    -0.113681   
N192     N      0.987980000000     0.486330000000     0.509040000000    -0.160298   
N193     N      0.731630000000     0.733600000000     0.155470000000    -0.167468   
N194     N      0.699920000000     0.701750000000     0.120320000000    -0.110877   
N195     N      0.651110000000     0.652990000000     0.034110000000    -0.113622   
N196     N      0.618970000000     0.620050000000     0.999980000000    -0.163238   
N197     N      0.619380000000     0.621060000000     0.408020000000    -0.168543   
N198     N      0.649030000000     0.652850000000     0.371450000000    -0.110882   
N199     N      0.691200000000     0.697100000000     0.281170000000    -0.113788   
N200     N      0.723450000000     0.727950000000     0.245700000000    -0.164442   
N201     N      0.607960000000     0.997690000000     0.016040000000    -0.164114   
N202     N      0.637450000000     0.969750000000     0.054930000000    -0.110952   
N203     N      0.708180000000     0.892930000000     0.112100000000    -0.113724   
N204     N      0.737690000000     0.862440000000     0.149410000000    -0.162086   
N205     N      0.866760000000     0.730140000000     0.158180000000    -0.166542   
N206     N      0.899820000000     0.696770000000     0.124680000000    -0.110697   
N207     N      0.951630000000     0.644660000000     0.040840000000    -0.113277   
N208     N      0.984630000000     0.612730000000     0.006560000000    -0.163359   
N209     N      0.994210000000     0.988240000000     0.396650000000    -0.164353   
N210     N      0.966640000000     0.959880000000     0.357250000000    -0.111118   
N211     N      0.891740000000     0.891190000000     0.297140000000    -0.113738   
N212     N      0.862700000000     0.862940000000     0.258590000000    -0.164923   
N213     N      0.869160000000     0.727500000000     0.250370000000    -0.167546   
N214     N      0.899670000000     0.695620000000     0.286610000000    -0.11075    
N215     N      0.943600000000     0.651280000000     0.376510000000    -0.113688   
N216     N      0.975650000000     0.620560000000     0.412360000000    -0.164329   
N217     N      0.729340000000     0.872850000000     0.248910000000    -0.167506   
N218     N      0.698960000000     0.904090000000     0.285670000000    -0.110739   
N219     N      0.654120000000     0.946000000000     0.376130000000    -0.113641   
N220     N      0.623020000000     0.976740000000     0.412600000000    -0.164206   
N221     N      0.859420000000     0.854780000000     0.146240000000    -0.166676   
N222     N      0.889050000000     0.882380000000     0.107230000000    -0.11074    
N223     N      0.959080000000     0.956980000000     0.047390000000    -0.11338    
N224     N      0.987980000000     0.986330000000     0.009040000000    -0.159286   
N225     N      0.731630000000     0.733600000000     0.655470000000    -0.167468   
N226     N      0.699920000000     0.701750000000     0.620320000000    -0.110869   
N227     N      0.651110000000     0.652990000000     0.534110000000    -0.11362    
N228     N      0.618970000000     0.620050000000     0.499980000000    -0.163251   
N229     N      0.619380000000     0.621060000000     0.908020000000    -0.168537   
N230     N      0.649030000000     0.652850000000     0.871450000000    -0.1109     
N231     N      0.691200000000     0.697100000000     0.781170000000    -0.113788   
N232     N      0.723450000000     0.727950000000     0.745700000000    -0.164442   
N233     N      0.607960000000     0.997690000000     0.516040000000    -0.164106   
N234     N      0.637450000000     0.969750000000     0.554930000000    -0.110952   
N235     N      0.708180000000     0.892930000000     0.612100000000    -0.113724   
N236     N      0.737690000000     0.862440000000     0.649410000000    -0.162086   
N237     N      0.866760000000     0.730140000000     0.658180000000    -0.166542   
N238     N      0.899820000000     0.696770000000     0.624680000000    -0.110692   
N239     N      0.951630000000     0.644660000000     0.540840000000    -0.113278   
N240     N      0.984630000000     0.612730000000     0.506560000000    -0.163354   
N241     N      0.994210000000     0.988240000000     0.896650000000    -0.164353   
N242     N      0.966640000000     0.959880000000     0.857250000000    -0.111118   
N243     N      0.891740000000     0.891190000000     0.797140000000    -0.113742   
N244     N      0.862700000000     0.862940000000     0.758590000000    -0.164923   
N245     N      0.869160000000     0.727500000000     0.750370000000    -0.16754    
N246     N      0.899670000000     0.695620000000     0.786610000000    -0.110752   
N247     N      0.943600000000     0.651280000000     0.876510000000    -0.113686   
N248     N      0.975650000000     0.620560000000     0.912360000000    -0.164371   
N249     N      0.729340000000     0.872850000000     0.748910000000    -0.167511   
N250     N      0.698960000000     0.904090000000     0.785670000000    -0.110734   
N251     N      0.654120000000     0.946000000000     0.876130000000    -0.113633   
N252     N      0.623020000000     0.976740000000     0.912600000000    -0.164206   
N253     N      0.859420000000     0.854780000000     0.646240000000    -0.166669   
N254     N      0.889050000000     0.882380000000     0.607230000000    -0.11074    
N255     N      0.959080000000     0.956980000000     0.547390000000    -0.113385   
N256     N      0.987980000000     0.986330000000     0.509040000000    -0.159276   
O1       O      0.490650000000     0.523420000000     0.980990000000    -0.368044   
O2       O      0.112980000000     0.078740000000     0.976980000000    -0.361118   
O3       O      0.072720000000     0.496060000000     0.986390000000    -0.366492   
O4       O      0.523500000000     0.109010000000     0.980400000000    -0.367951   
O5       O      0.108460000000     0.529110000000     0.983590000000    -0.369193   
O6       O      0.490040000000     0.073430000000     0.981080000000    -0.364306   
O7       O      0.077390000000     0.112180000000     0.977640000000    -0.365954   
O8       O      0.526040000000     0.489800000000     0.982060000000    -0.363121   
O9       O      0.484720000000     0.078100000000     0.433340000000    -0.360703   
O10      O      0.114870000000     0.519700000000     0.433080000000    -0.369211   
O11      O      0.528390000000     0.489770000000     0.427080000000    -0.365818   
O12      O      0.078080000000     0.113210000000     0.430760000000    -0.365389   
O13      O      0.112890000000     0.078980000000     0.430070000000    -0.365358   
O14      O      0.493940000000     0.524300000000     0.425480000000    -0.371356   
O15      O      0.518780000000     0.113070000000     0.432780000000    -0.364433   
O16      O      0.080800000000     0.484760000000     0.434240000000    -0.362402   
O17      O      0.550550000000     0.549410000000     0.943680000000    -0.584506   
O18      O      0.323020000000     0.355100000000     0.174980000000    -0.366894   
O19      O      0.271840000000     0.239070000000     0.179950000000    -0.367587   
O20      O      0.360410000000     0.271660000000     0.180990000000    -0.361369   
O21      O      0.239670000000     0.325780000000     0.177800000000    -0.365508   
O22      O      0.325900000000     0.237130000000     0.181720000000    -0.363946   
O23      O      0.275420000000     0.359000000000     0.176740000000    -0.359813   
O24      O      0.237590000000     0.273860000000     0.179750000000    -0.364036   
O25      O      0.358100000000     0.321270000000     0.177220000000    -0.370548   
O26      O      0.271250000000     0.364420000000     0.226850000000    -0.361523   
O27      O      0.327100000000     0.235770000000     0.228580000000    -0.363836   
O28      O      0.359060000000     0.324860000000     0.231850000000    -0.371956   
O29      O      0.233360000000     0.271020000000     0.225970000000    -0.364369   
O30      O      0.267030000000     0.235670000000     0.226140000000    -0.365092   
O31      O      0.325570000000     0.360350000000     0.230660000000    -0.368531   
O32      O      0.235990000000     0.330660000000     0.226990000000    -0.367261   
O33      O      0.362340000000     0.269530000000     0.228260000000    -0.359831   
O34      O      0.298650000000     0.299740000000     0.215820000000    -0.587683   
O35      O      0.490650000000     0.523420000000     0.480990000000    -0.368045   
O36      O      0.112980000000     0.078740000000     0.476980000000    -0.361131   
O37      O      0.072720000000     0.496060000000     0.486390000000    -0.366492   
O38      O      0.523500000000     0.109010000000     0.480400000000    -0.367958   
O39      O      0.108460000000     0.529110000000     0.483590000000    -0.369186   
O40      O      0.490040000000     0.073430000000     0.481080000000    -0.364312   
O41      O      0.077390000000     0.112180000000     0.477640000000    -0.36596    
O42      O      0.526040000000     0.489800000000     0.482060000000    -0.363123   
O43      O      0.484720000000     0.078100000000     0.933340000000    -0.360636   
O44      O      0.114870000000     0.519700000000     0.933080000000    -0.369221   
O45      O      0.528390000000     0.489770000000     0.927080000000    -0.365818   
O46      O      0.078080000000     0.113210000000     0.930760000000    -0.365369   
O47      O      0.112890000000     0.078980000000     0.930080000000    -0.365365   
O48      O      0.493940000000     0.524300000000     0.925480000000    -0.371361   
O49      O      0.518780000000     0.113070000000     0.932780000000    -0.36437    
O50      O      0.080800000000     0.484760000000     0.934240000000    -0.362404   
O51      O      0.550550000000     0.549410000000     0.443680000000    -0.584497   
O52      O      0.323020000000     0.355100000000     0.674980000000    -0.366894   
O53      O      0.271840000000     0.239070000000     0.679950000000    -0.367587   
O54      O      0.360410000000     0.271660000000     0.680990000000    -0.361369   
O55      O      0.239670000000     0.325780000000     0.677800000000    -0.365508   
O56      O      0.325900000000     0.237130000000     0.681720000000    -0.363945   
O57      O      0.275420000000     0.359000000000     0.676740000000    -0.359813   
O58      O      0.237590000000     0.273860000000     0.679750000000    -0.364035   
O59      O      0.358100000000     0.321270000000     0.677220000000    -0.370548   
O60      O      0.271250000000     0.364420000000     0.726850000000    -0.361523   
O61      O      0.327100000000     0.235770000000     0.728580000000    -0.363835   
O62      O      0.359060000000     0.324860000000     0.731850000000    -0.371956   
O63      O      0.233360000000     0.271020000000     0.725970000000    -0.364369   
O64      O      0.267030000000     0.235670000000     0.726140000000    -0.365092   
O65      O      0.325570000000     0.360350000000     0.730660000000    -0.368531   
O66      O      0.235990000000     0.330660000000     0.726990000000    -0.367262   
O67      O      0.362340000000     0.269530000000     0.728260000000    -0.35983    
O68      O      0.298650000000     0.299740000000     0.715820000000    -0.587683   
O69      O      0.490650000000     0.023420000000     0.980990000000    -0.367306   
O70      O      0.112980000000     0.578740000000     0.976980000000    -0.36112    
O71      O      0.072720000000     0.996060000000     0.986390000000    -0.36301    
O72      O      0.523500000000     0.609010000000     0.980400000000    -0.367961   
O73      O      0.108460000000     0.029110000000     0.983590000000    -0.368314   
O74      O      0.490040000000     0.573430000000     0.981080000000    -0.364227   
O75      O      0.077390000000     0.612180000000     0.977640000000    -0.36593    
O76      O      0.526040000000     0.989800000000     0.982060000000    -0.359802   
O77      O      0.484720000000     0.578100000000     0.433340000000    -0.36061    
O78      O      0.114870000000     0.019700000000     0.433080000000    -0.371231   
O79      O      0.528390000000     0.989770000000     0.427080000000    -0.362206   
O80      O      0.078080000000     0.613210000000     0.430760000000    -0.36538    
O81      O      0.112890000000     0.578980000000     0.430070000000    -0.365268   
O82      O      0.493940000000     0.024300000000     0.425480000000    -0.370429   
O83      O      0.518780000000     0.613070000000     0.432780000000    -0.36443    
O84      O      0.080800000000     0.984760000000     0.434240000000    -0.361703   
O85      O      0.550550000000     0.049410000000     0.943680000000    -0.58416    
O86      O      0.323020000000     0.855100000000     0.174980000000    -0.366868   
O87      O      0.271840000000     0.739060000000     0.179950000000    -0.367448   
O88      O      0.360410000000     0.771660000000     0.180990000000    -0.361372   
O89      O      0.239670000000     0.825780000000     0.177800000000    -0.365511   
O90      O      0.325900000000     0.737130000000     0.181720000000    -0.363932   
O91      O      0.275420000000     0.859000000000     0.176740000000    -0.359786   
O92      O      0.237590000000     0.773860000000     0.179750000000    -0.364013   
O93      O      0.358100000000     0.821270000000     0.177220000000    -0.370546   
O94      O      0.271250000000     0.864420000000     0.226850000000    -0.361487   
O95      O      0.327100000000     0.735770000000     0.228580000000    -0.363812   
O96      O      0.359060000000     0.824860000000     0.231850000000    -0.371954   
O97      O      0.233360000000     0.771020000000     0.225970000000    -0.364374   
O98      O      0.267030000000     0.735670000000     0.226140000000    -0.365066   
O99      O      0.325570000000     0.860350000000     0.230660000000    -0.368497   
O100     O      0.235990000000     0.830660000000     0.226990000000    -0.367262   
O101     O      0.362340000000     0.769530000000     0.228260000000    -0.359833   
O102     O      0.298650000000     0.799740000000     0.215820000000    -0.587687   
O103     O      0.490650000000     0.023420000000     0.480990000000    -0.367306   
O104     O      0.112980000000     0.578740000000     0.476980000000    -0.361133   
O105     O      0.072720000000     0.996060000000     0.486390000000    -0.36301    
O106     O      0.523500000000     0.609010000000     0.480400000000    -0.367967   
O107     O      0.108460000000     0.029110000000     0.483590000000    -0.368307   
O108     O      0.490040000000     0.573430000000     0.481080000000    -0.364233   
O109     O      0.077390000000     0.612180000000     0.477640000000    -0.365937   
O110     O      0.526040000000     0.989800000000     0.482060000000    -0.359804   
O111     O      0.484720000000     0.578100000000     0.933340000000    -0.360543   
O112     O      0.114870000000     0.019700000000     0.933080000000    -0.37124    
O113     O      0.528390000000     0.989770000000     0.927080000000    -0.362207   
O114     O      0.078080000000     0.613210000000     0.930760000000    -0.36536    
O115     O      0.112890000000     0.578980000000     0.930080000000    -0.365275   
O116     O      0.493940000000     0.024300000000     0.925480000000    -0.370434   
O117     O      0.518780000000     0.613070000000     0.932780000000    -0.364368   
O118     O      0.080800000000     0.984760000000     0.934240000000    -0.361704   
O119     O      0.550550000000     0.049410000000     0.443680000000    -0.584151   
O120     O      0.323020000000     0.855100000000     0.674980000000    -0.366867   
O121     O      0.271840000000     0.739060000000     0.679950000000    -0.367448   
O122     O      0.360410000000     0.771660000000     0.680990000000    -0.361372   
O123     O      0.239670000000     0.825780000000     0.677800000000    -0.365511   
O124     O      0.325900000000     0.737130000000     0.681720000000    -0.363932   
O125     O      0.275420000000     0.859000000000     0.676740000000    -0.359786   
O126     O      0.237590000000     0.773860000000     0.679750000000    -0.364013   
O127     O      0.358100000000     0.821270000000     0.677220000000    -0.370546   
O128     O      0.271250000000     0.864420000000     0.726850000000    -0.361487   
O129     O      0.327100000000     0.735770000000     0.728580000000    -0.363811   
O130     O      0.359060000000     0.824860000000     0.731850000000    -0.371954   
O131     O      0.233360000000     0.771020000000     0.725970000000    -0.364374   
O132     O      0.267030000000     0.735670000000     0.726140000000    -0.365066   
O133     O      0.325570000000     0.860350000000     0.730660000000    -0.368497   
O134     O      0.235990000000     0.830660000000     0.726990000000    -0.367263   
O135     O      0.362340000000     0.769530000000     0.728260000000    -0.359833   
O136     O      0.298650000000     0.799740000000     0.715820000000    -0.587687   
O137     O      0.990650000000     0.523420000000     0.980990000000    -0.365664   
O138     O      0.612980000000     0.078740000000     0.976980000000    -0.361122   
O139     O      0.572720000000     0.496060000000     0.986390000000    -0.366441   
O140     O      0.023500000000     0.109010000000     0.980400000000    -0.369329   
O141     O      0.608460000000     0.529110000000     0.983590000000    -0.369199   
O142     O      0.990040000000     0.073430000000     0.981080000000    -0.363865   
O143     O      0.577390000000     0.112180000000     0.977640000000    -0.365895   
O144     O      0.026040000000     0.489800000000     0.982060000000    -0.362488   
O145     O      0.984720000000     0.078100000000     0.433340000000    -0.360279   
O146     O      0.614870000000     0.519700000000     0.433080000000    -0.369215   
O147     O      0.028390000000     0.489770000000     0.427080000000    -0.365176   
O148     O      0.578080000000     0.113210000000     0.430760000000    -0.365307   
O149     O      0.612890000000     0.078980000000     0.430070000000    -0.365348   
O150     O      0.993940000000     0.524300000000     0.425480000000    -0.368911   
O151     O      0.018780000000     0.113070000000     0.432780000000    -0.365827   
O152     O      0.580800000000     0.484760000000     0.434240000000    -0.362353   
O153     O      0.050550000000     0.549410000000     0.943680000000    -0.584329   
O154     O      0.823020000000     0.355100000000     0.174980000000    -0.366892   
O155     O      0.771840000000     0.239070000000     0.179950000000    -0.367576   
O156     O      0.860410000000     0.271660000000     0.180990000000    -0.361354   
O157     O      0.739660000000     0.325780000000     0.177800000000    -0.365339   
O158     O      0.825900000000     0.237130000000     0.181720000000    -0.363951   
O159     O      0.775420000000     0.359000000000     0.176740000000    -0.359895   
O160     O      0.737590000000     0.273860000000     0.179750000000    -0.36401    
O161     O      0.858100000000     0.321270000000     0.177220000000    -0.370529   
O162     O      0.771250000000     0.364420000000     0.226850000000    -0.36152    
O163     O      0.827100000000     0.235770000000     0.228580000000    -0.363839   
O164     O      0.859060000000     0.324860000000     0.231850000000    -0.371934   
O165     O      0.733360000000     0.271020000000     0.225970000000    -0.364351   
O166     O      0.767030000000     0.235670000000     0.226140000000    -0.365093   
O167     O      0.825570000000     0.360350000000     0.230660000000    -0.368528   
O168     O      0.735990000000     0.330660000000     0.226990000000    -0.367242   
O169     O      0.862340000000     0.269530000000     0.228260000000    -0.359814   
O170     O      0.798650000000     0.299740000000     0.215820000000    -0.587684   
O171     O      0.990650000000     0.523420000000     0.480990000000    -0.365665   
O172     O      0.612980000000     0.078740000000     0.476980000000    -0.361135   
O173     O      0.572720000000     0.496060000000     0.486390000000    -0.366441   
O174     O      0.023500000000     0.109010000000     0.480400000000    -0.369335   
O175     O      0.608460000000     0.529110000000     0.483590000000    -0.369193   
O176     O      0.990040000000     0.073430000000     0.481080000000    -0.363871   
O177     O      0.577390000000     0.112180000000     0.477640000000    -0.365902   
O178     O      0.026040000000     0.489800000000     0.482060000000    -0.36249    
O179     O      0.984720000000     0.078100000000     0.933340000000    -0.360212   
O180     O      0.614870000000     0.519700000000     0.933080000000    -0.369225   
O181     O      0.028390000000     0.489770000000     0.927080000000    -0.365176   
O182     O      0.578080000000     0.113210000000     0.930760000000    -0.365287   
O183     O      0.612890000000     0.078980000000     0.930080000000    -0.365355   
O184     O      0.993940000000     0.524300000000     0.925480000000    -0.368917   
O185     O      0.018780000000     0.113070000000     0.932780000000    -0.365764   
O186     O      0.580800000000     0.484760000000     0.934240000000    -0.362354   
O187     O      0.050550000000     0.549410000000     0.443680000000    -0.58432    
O188     O      0.823020000000     0.355100000000     0.674980000000    -0.366891   
O189     O      0.771840000000     0.239070000000     0.679950000000    -0.367576   
O190     O      0.860410000000     0.271660000000     0.680990000000    -0.361354   
O191     O      0.739660000000     0.325780000000     0.677800000000    -0.365339   
O192     O      0.825900000000     0.237130000000     0.681720000000    -0.36395    
O193     O      0.775420000000     0.359000000000     0.676740000000    -0.359895   
O194     O      0.737590000000     0.273860000000     0.679750000000    -0.36401    
O195     O      0.858100000000     0.321270000000     0.677220000000    -0.370529   
O196     O      0.771250000000     0.364420000000     0.726850000000    -0.36152    
O197     O      0.827100000000     0.235770000000     0.728580000000    -0.363838   
O198     O      0.859060000000     0.324860000000     0.731850000000    -0.371934   
O199     O      0.733360000000     0.271020000000     0.725970000000    -0.364351   
O200     O      0.767030000000     0.235670000000     0.726140000000    -0.365093   
O201     O      0.825570000000     0.360350000000     0.730660000000    -0.368528   
O202     O      0.735990000000     0.330660000000     0.726990000000    -0.367243   
O203     O      0.862340000000     0.269530000000     0.728260000000    -0.359814   
O204     O      0.798650000000     0.299740000000     0.715820000000    -0.587684   
O205     O      0.990650000000     0.023420000000     0.980990000000    -0.364922   
O206     O      0.612980000000     0.578740000000     0.976980000000    -0.361124   
O207     O      0.572720000000     0.996060000000     0.986390000000    -0.362962   
O208     O      0.023500000000     0.609010000000     0.980400000000    -0.369336   
O209     O      0.608460000000     0.029110000000     0.983590000000    -0.368321   
O210     O      0.990040000000     0.573430000000     0.981080000000    -0.363787   
O211     O      0.577390000000     0.612180000000     0.977640000000    -0.365872   
O212     O      0.026040000000     0.989800000000     0.982060000000    -0.359169   
O213     O      0.984720000000     0.578100000000     0.433340000000    -0.360186   
O214     O      0.614870000000     0.019700000000     0.433080000000    -0.371232   
O215     O      0.028390000000     0.989770000000     0.427080000000    -0.361564   
O216     O      0.578080000000     0.613210000000     0.430760000000    -0.365298   
O217     O      0.612890000000     0.578980000000     0.430070000000    -0.365259   
O218     O      0.993940000000     0.024300000000     0.425480000000    -0.367982   
O219     O      0.018780000000     0.613070000000     0.432780000000    -0.365822   
O220     O      0.580800000000     0.984760000000     0.434240000000    -0.361654   
O221     O      0.050550000000     0.049410000000     0.943680000000    -0.583983   
O222     O      0.823020000000     0.855100000000     0.174980000000    -0.366865   
O223     O      0.771840000000     0.739060000000     0.179950000000    -0.367437   
O224     O      0.860410000000     0.771660000000     0.180990000000    -0.361357   
O225     O      0.739660000000     0.825780000000     0.177800000000    -0.365343   
O226     O      0.825900000000     0.737130000000     0.181720000000    -0.363937   
O227     O      0.775420000000     0.859000000000     0.176740000000    -0.359868   
O228     O      0.737590000000     0.773860000000     0.179750000000    -0.363987   
O229     O      0.858100000000     0.821270000000     0.177220000000    -0.370527   
O230     O      0.771250000000     0.864420000000     0.226850000000    -0.361484   
O231     O      0.827100000000     0.735770000000     0.228580000000    -0.363815   
O232     O      0.859060000000     0.824860000000     0.231850000000    -0.371933   
O233     O      0.733360000000     0.771020000000     0.225970000000    -0.364355   
O234     O      0.767030000000     0.735670000000     0.226140000000    -0.365067   
O235     O      0.825570000000     0.860350000000     0.230660000000    -0.368494   
O236     O      0.735990000000     0.830660000000     0.226990000000    -0.367243   
O237     O      0.862340000000     0.769530000000     0.228260000000    -0.359817   
O238     O      0.798650000000     0.799740000000     0.215820000000    -0.587688   
O239     O      0.990650000000     0.023420000000     0.480990000000    -0.364923   
O240     O      0.612980000000     0.578740000000     0.476980000000    -0.361137   
O241     O      0.572720000000     0.996060000000     0.486390000000    -0.362962   
O242     O      0.023500000000     0.609010000000     0.480400000000    -0.369342   
O243     O      0.608460000000     0.029110000000     0.483590000000    -0.368314   
O244     O      0.990040000000     0.573430000000     0.481080000000    -0.363793   
O245     O      0.577390000000     0.612180000000     0.477640000000    -0.365878   
O246     O      0.026040000000     0.989800000000     0.482060000000    -0.35917    
O247     O      0.984720000000     0.578100000000     0.933340000000    -0.360119   
O248     O      0.614870000000     0.019700000000     0.933080000000    -0.371242   
O249     O      0.028390000000     0.989770000000     0.927080000000    -0.361564   
O250     O      0.578080000000     0.613210000000     0.930760000000    -0.365279   
O251     O      0.612890000000     0.578980000000     0.930080000000    -0.365266   
O252     O      0.993940000000     0.024300000000     0.925480000000    -0.367987   
O253     O      0.018780000000     0.613070000000     0.932780000000    -0.365759   
O254     O      0.580800000000     0.984760000000     0.934240000000    -0.361655   
O255     O      0.050550000000     0.049410000000     0.443680000000    -0.583974   
O256     O      0.823020000000     0.855100000000     0.674980000000    -0.366864   
O257     O      0.771840000000     0.739060000000     0.679950000000    -0.367437   
O258     O      0.860410000000     0.771660000000     0.680990000000    -0.361357   
O259     O      0.739660000000     0.825780000000     0.677800000000    -0.365343   
O260     O      0.825900000000     0.737130000000     0.681720000000    -0.363937   
O261     O      0.775420000000     0.859000000000     0.676740000000    -0.359868   
O262     O      0.737590000000     0.773860000000     0.679750000000    -0.363987   
O263     O      0.858100000000     0.821270000000     0.677220000000    -0.370527   
O264     O      0.771250000000     0.864420000000     0.726850000000    -0.361484   
O265     O      0.827100000000     0.735770000000     0.728580000000    -0.363814   
O266     O      0.859060000000     0.824860000000     0.731850000000    -0.371933   
O267     O      0.733360000000     0.771020000000     0.725970000000    -0.364355   
O268     O      0.767030000000     0.735670000000     0.726140000000    -0.365067   
O269     O      0.825570000000     0.860350000000     0.730660000000    -0.368494   
O270     O      0.735990000000     0.830660000000     0.726990000000    -0.367244   
O271     O      0.862340000000     0.769530000000     0.728260000000    -0.359817   
O272     O      0.798650000000     0.799740000000     0.715820000000    -0.587688   
S1       S      0.178350000000     0.231210000000     0.168440000000    -0.00664556 
S2       S      0.173020000000     0.125160000000     0.419600000000    -0.010578   
S3       S      0.073530000000     0.492970000000     0.051880000000    -0.0197618  
S4       S      0.369470000000     0.177680000000     0.173230000000    -0.00534281 
S5       S      0.533450000000     0.472510000000     0.366740000000    -0.013141   
S6       S      0.422410000000     0.222880000000     0.237810000000    -0.00823993 
S7       S      0.176230000000     0.378780000000     0.236260000000    -0.0102307  
S8       S      0.324870000000     0.360590000000     0.110630000000    -0.0191532  
S9       S      0.178350000000     0.231210000000     0.668430000000    -0.00665345 
S10      S      0.173020000000     0.125160000000     0.919600000000    -0.0105701  
S11      S      0.073530000000     0.492970000000     0.551880000000    -0.0197598  
S12      S      0.369470000000     0.177680000000     0.673230000000    -0.00534185 
S13      S      0.533450000000     0.472510000000     0.866740000000    -0.0131438  
S14      S      0.422410000000     0.222880000000     0.737810000000    -0.0082392  
S15      S      0.176230000000     0.378780000000     0.736260000000    -0.0102437  
S16      S      0.324870000000     0.360590000000     0.610630000000    -0.0191573  
S17      S      0.178350000000     0.731210000000     0.168440000000    -0.00654948 
S18      S      0.173020000000     0.625160000000     0.419600000000    -0.0103213  
S19      S      0.073530000000     0.992970000000     0.051880000000    -0.0182627  
S20      S      0.369470000000     0.677670000000     0.173230000000    -0.00504023 
S21      S      0.533450000000     0.972510000000     0.366740000000    -0.0120484  
S22      S      0.422410000000     0.722870000000     0.237810000000    -0.00813255 
S23      S      0.176230000000     0.878780000000     0.236260000000    -0.0100455  
S24      S      0.324870000000     0.860590000000     0.110630000000    -0.0190952  
S25      S      0.178350000000     0.731210000000     0.668430000000    -0.00655735 
S26      S      0.173020000000     0.625160000000     0.919600000000    -0.0103134  
S27      S      0.073530000000     0.992970000000     0.551880000000    -0.0182597  
S28      S      0.369470000000     0.677670000000     0.673230000000    -0.00503919 
S29      S      0.533450000000     0.972510000000     0.866740000000    -0.0120512  
S30      S      0.422410000000     0.722870000000     0.737810000000    -0.0081318  
S31      S      0.176230000000     0.878780000000     0.736260000000    -0.0100585  
S32      S      0.324870000000     0.860590000000     0.610630000000    -0.0190992  
S33      S      0.678350000000     0.231210000000     0.168440000000    -0.00644308 
S34      S      0.673020000000     0.125160000000     0.419600000000    -0.0105876  
S35      S      0.573530000000     0.492970000000     0.051880000000    -0.019202   
S36      S      0.869470000000     0.177680000000     0.173230000000    -0.00525571 
S37      S      0.033450000000     0.472510000000     0.366740000000    -0.0136953  
S38      S      0.922410000000     0.222880000000     0.237810000000    -0.00792028 
S39      S      0.676230000000     0.378780000000     0.236260000000    -0.0100062  
S40      S      0.824870000000     0.360590000000     0.110630000000    -0.0191592  
S41      S      0.678350000000     0.231210000000     0.668430000000    -0.00645091 
S42      S      0.673020000000     0.125160000000     0.919600000000    -0.0105797  
S43      S      0.573530000000     0.492970000000     0.551880000000    -0.0191996  
S44      S      0.869470000000     0.177680000000     0.673230000000    -0.00525474 
S45      S      0.033450000000     0.472510000000     0.866740000000    -0.0136981  
S46      S      0.922410000000     0.222880000000     0.737810000000    -0.00791951 
S47      S      0.676230000000     0.378780000000     0.736260000000    -0.0100192  
S48      S      0.824870000000     0.360590000000     0.610630000000    -0.0191633  
S49      S      0.678350000000     0.731210000000     0.168440000000    -0.0063474  
S50      S      0.673020000000     0.625160000000     0.419600000000    -0.0103314  
S51      S      0.573530000000     0.992970000000     0.051880000000    -0.0177057  
S52      S      0.869470000000     0.677670000000     0.173230000000    -0.00495405 
S53      S      0.033450000000     0.972510000000     0.366740000000    -0.0126013  
S54      S      0.922410000000     0.722870000000     0.237810000000    -0.00781444 
S55      S      0.676230000000     0.878780000000     0.236260000000    -0.00982202 
S56      S      0.824870000000     0.860590000000     0.110630000000    -0.0191015  
S57      S      0.678350000000     0.731210000000     0.668430000000    -0.00635522 
S58      S      0.673020000000     0.625160000000     0.919600000000    -0.0103235  
S59      S      0.573530000000     0.992970000000     0.551880000000    -0.0177025  
S60      S      0.869470000000     0.677670000000     0.673230000000    -0.004953   
S61      S      0.033450000000     0.972510000000     0.866740000000    -0.0126041  
S62      S      0.922410000000     0.722870000000     0.737810000000    -0.00781365 
S63      S      0.676230000000     0.878780000000     0.736260000000    -0.00983491 
S64      S      0.824870000000     0.860590000000     0.610630000000    -0.0191054  


