data_structure

_audit_creation_method RASPA-1.0
_audit_creation_date 2023-5-25
_audit_author_name 'Poobodin Mano'

_cell_length_a    48.1554
_cell_length_b    48.2847
_cell_length_c    51.1464
_cell_angle_alpha 90
_cell_angle_beta  90
_cell_angle_gamma 90
_cell_volume      118924

_symmetry_cell_setting          triclinic
_symmetry_space_group_name_Hall 'P 1'
_symmetry_space_group_name_H-M  'P 1'
_symmetry_Int_Tables_number     1

_symmetry_equiv_pos_as_xyz 'x,y,z'

loop_
_atom_site_label
_atom_site_type_symbol
_atom_site_fract_x
_atom_site_fract_y
_atom_site_fract_z
_atom_site_charge
C1       C      0.472610000000     0.474720000000     0.027910000000     0.395384   
C2       C      0.067190000000     0.066480000000     0.027120000000     0.394784   
C3       C      0.072340000000     0.467210000000     0.019890000000     0.391219   
C4       C      0.467310000000     0.073330000000     0.016840000000     0.394169   
C5       C      0.476570000000     0.064080000000     0.447970000000     0.381739   
C6       C      0.066850000000     0.471600000000     0.453380000000     0.384273   
C7       C      0.474610000000     0.473680000000     0.451070000000     0.38682    
C8       C      0.067150000000     0.064570000000     0.450880000000     0.386892   
C9       C      0.318590000000     0.316230000000     0.203390000000     0.397389   
C10      C      0.226550000000     0.219430000000     0.203070000000     0.396762   
C11      C      0.324820000000     0.215500000000     0.211890000000     0.391642   
C12      C      0.220000000000     0.319840000000     0.209340000000     0.393029   
C13      C      0.222050000000     0.315800000000     0.274790000000     0.391976   
C14      C      0.317010000000     0.225780000000     0.281990000000     0.38491    
C15      C      0.317220000000     0.313480000000     0.279620000000     0.385069   
C16      C      0.225980000000     0.223180000000     0.279390000000     0.384291   
C17      C      0.170230000000     0.197420000000     0.158340000000    -0.0323349  
C18      C      0.124550000000     0.086170000000     0.071610000000    -0.0293085  
C19      C      0.068350000000     0.104600000000     0.059340000000    -0.0081494  
C20      C      0.103470000000     0.065360000000     0.061120000000    -0.00836647 
C21      C      0.128600000000     0.124770000000     0.128230000000    -0.0542825  
C22      C      0.167260000000     0.158220000000     0.102380000000    -0.0536774  
C23      C      0.129290000000     0.125050000000     0.100870000000     0.0616649  
C24      C      0.090990000000     0.123660000000     0.070160000000    -0.0295342  
C25      C      0.166510000000     0.158000000000     0.129740000000     0.0610603  
C26      C      0.204170000000     0.160410000000     0.161140000000    -0.0589133  
C27      C      0.146990000000     0.141100000000     0.142630000000    -0.056021   
C28      C      0.226470000000     0.179890000000     0.172310000000     0.0950316  
C29      C      0.190750000000     0.218840000000     0.168670000000    -0.00486062 
C30      C      0.148840000000     0.141900000000     0.087970000000    -0.0565783  
C31      C      0.125880000000     0.087490000000     0.409520000000    -0.0327016  
C32      C      0.167690000000     0.200830000000     0.321440000000    -0.0293703  
C33      C      0.226390000000     0.188060000000     0.314610000000    -0.00915459 
C34      C      0.187550000000     0.223280000000     0.311530000000    -0.00905569 
C35      C      0.162790000000     0.163140000000     0.378970000000    -0.0541624  
C36      C      0.130730000000     0.124680000000     0.351410000000    -0.0536573  
C37      C      0.164310000000     0.162350000000     0.351640000000     0.0614607  
C38      C      0.204960000000     0.167010000000     0.324120000000    -0.0290348  
C39      C      0.129250000000     0.125440000000     0.378750000000     0.0606491  
C40      C      0.088280000000     0.120810000000     0.405770000000    -0.0586312  
C41      C      0.145410000000     0.144910000000     0.392500000000    -0.0560056  
C42      C      0.066800000000     0.099820000000     0.415770000000     0.0934843  
C43      C      0.106240000000     0.064910000000     0.419510000000    -0.00509485 
C44      C      0.148090000000     0.142940000000     0.337880000000    -0.056604   
C45      C      0.166150000000     0.338920000000     0.160650000000    -0.0325696  
C46      C      0.127210000000     0.448130000000     0.067420000000    -0.0292819  
C47      C      0.080540000000     0.421820000000     0.040910000000    -0.00861858 
C48      C      0.117940000000     0.458860000000     0.040660000000    -0.00864344 
C49      C      0.154680000000     0.386060000000     0.089130000000    -0.0541294  
C50      C      0.138500000000     0.401430000000     0.139590000000    -0.0533861  
C51      C      0.133940000000     0.406110000000     0.092390000000     0.0613912  
C52      C      0.091490000000     0.412670000000     0.067650000000    -0.0293573  
C53      C      0.159170000000     0.381300000000     0.136330000000     0.060547   
C54      C      0.201310000000     0.374880000000     0.161510000000    -0.0588849  
C55      C      0.167250000000     0.373720000000     0.110840000000    -0.0557421  
C56      C      0.212320000000     0.365300000000     0.188240000000     0.0946883  
C57      C      0.175020000000     0.327750000000     0.187350000000    -0.00528188 
C58      C      0.125950000000     0.413800000000     0.117880000000    -0.0566169  
C59      C      0.449010000000     0.126810000000     0.065390000000    -0.0325557  
C60      C      0.342450000000     0.161900000000     0.163150000000    -0.0292355  
C61      C      0.370280000000     0.206750000000     0.190900000000    -0.00894389 
C62      C      0.332580000000     0.170140000000     0.190520000000    -0.0091527  
C63      C      0.404000000000     0.135210000000     0.138640000000    -0.0540975  
C64      C      0.387100000000     0.153750000000     0.089340000000    -0.0535571  
C65      C      0.383780000000     0.155960000000     0.136790000000     0.0614028  
C66      C      0.378560000000     0.197050000000     0.163510000000    -0.0291787  
C67      C      0.407380000000     0.133040000000     0.091190000000     0.0607395  
C68      C      0.412480000000     0.092110000000     0.064310000000    -0.0587642  
C69      C      0.415730000000     0.123760000000     0.116100000000    -0.0559814  
C70      C      0.421400000000     0.081950000000     0.037110000000     0.0944192  
C71      C      0.459380000000     0.118660000000     0.038190000000    -0.00515379 
C72      C      0.375340000000     0.165180000000     0.111890000000    -0.0564011  
C73      C      0.417440000000     0.450770000000     0.407850000000    -0.0326634  
C74      C      0.374330000000     0.335540000000     0.323080000000    -0.0294953  
C75      C      0.316310000000     0.349730000000     0.313830000000    -0.00894391 
C76      C      0.354190000000     0.313350000000     0.313240000000    -0.00858382 
C77      C      0.395460000000     0.393050000000     0.338260000000    -0.0564751  
C78      C      0.396200000000     0.393160000000     0.392950000000    -0.0559518  
C79      C      0.377910000000     0.374920000000     0.352150000000     0.0611974  
C80      C      0.337980000000     0.370470000000     0.323620000000    -0.0293568  
C81      C      0.413820000000     0.411230000000     0.379070000000     0.0605602  
C82      C      0.453390000000     0.415490000000     0.408040000000    -0.0585238  
C83      C      0.413240000000     0.410990000000     0.351690000000    -0.053664   
C84      C      0.475300000000     0.435960000000     0.418260000000     0.0935943  
C85      C      0.437580000000     0.473000000000     0.417580000000    -0.00505832 
C86      C      0.378460000000     0.375190000000     0.379520000000    -0.0542327  
C87      C      0.374800000000     0.204070000000     0.324040000000    -0.0326302  
C88      C      0.419460000000     0.086520000000     0.405480000000    -0.0292456  
C89      C      0.477860000000     0.099940000000     0.413300000000    -0.00983707 
C90      C      0.439830000000     0.063910000000     0.414010000000    -0.00926235 
C91      C      0.413290000000     0.127720000000     0.350570000000    -0.0541606  
C92      C      0.381040000000     0.164040000000     0.380450000000    -0.0537577  
C93      C      0.415250000000     0.127030000000     0.377880000000     0.0614406  
C94      C      0.456100000000     0.121260000000     0.405020000000    -0.0287641  
C95      C      0.379150000000     0.164790000000     0.353130000000     0.060727   
C96      C      0.337530000000     0.170140000000     0.327200000000    -0.058588   
C97      C      0.395380000000     0.146350000000     0.338220000000    -0.0559315  
C98      C      0.315820000000     0.191260000000     0.317860000000     0.093242   
C99      C      0.354740000000     0.226660000000     0.314920000000    -0.00504224 
C100     C      0.398890000000     0.145320000000     0.392810000000    -0.0564915  
C101     C      0.201460000000     0.370020000000     0.323370000000    -0.0325306  
C102     C      0.084220000000     0.417450000000     0.403350000000    -0.0288961  
C103     C      0.109810000000     0.465560000000     0.428250000000    -0.00887262 
C104     C      0.071820000000     0.428200000000     0.428880000000    -0.00918201 
C105     C      0.147740000000     0.387670000000     0.389190000000    -0.0544448  
C106     C      0.137190000000     0.399070000000     0.336510000000    -0.0541166  
C107     C      0.128220000000     0.407960000000     0.382510000000     0.061803   
C108     C      0.119980000000     0.452480000000     0.402810000000    -0.0290379  
C109     C      0.156850000000     0.378910000000     0.343200000000     0.0604426  
C110     C      0.165700000000     0.334910000000     0.322140000000    -0.0622448  
C111     C      0.161980000000     0.373180000000     0.369750000000    -0.0559897  
C112     C      0.177080000000     0.322130000000     0.296770000000     0.0953138  
C113     C      0.214880000000     0.359600000000     0.298190000000    -0.00488731 
C114     C      0.122900000000     0.413520000000     0.355960000000    -0.0568983  
C115     C      0.375460000000     0.340370000000     0.159980000000    -0.032567   
C116     C      0.414700000000     0.453740000000     0.071300000000    -0.0294024  
C117     C      0.472590000000     0.438880000000     0.062260000000    -0.00827716 
C118     C      0.434770000000     0.475480000000     0.060530000000    -0.00828211 
C119     C      0.393710000000     0.397080000000     0.088840000000    -0.0565507  
C120     C      0.395280000000     0.397890000000     0.143510000000    -0.0561072  
C121     C      0.411580000000     0.415600000000     0.101850000000     0.0617605  
C122     C      0.450870000000     0.418710000000     0.072720000000    -0.02925    
C123     C      0.377410000000     0.379370000000     0.130500000000     0.0611724  
C124     C      0.339180000000     0.375210000000     0.160830000000    -0.0588895  
C125     C      0.376760000000     0.379170000000     0.103140000000    -0.0536385  
C126     C      0.317750000000     0.354700000000     0.171630000000     0.0950573  
C127     C      0.355990000000     0.317970000000     0.170450000000    -0.0047711  
C128     C      0.412190000000     0.415830000000     0.129210000000    -0.0542408  
C129     C      0.472610000000     0.474720000000     0.527910000000     0.395637   
C130     C      0.067190000000     0.066480000000     0.527120000000     0.394976   
C131     C      0.072340000000     0.467210000000     0.519890000000     0.391408   
C132     C      0.467310000000     0.073330000000     0.516840000000     0.39433    
C133     C      0.476570000000     0.064080000000     0.947970000000     0.381556   
C134     C      0.066850000000     0.471600000000     0.953380000000     0.384081   
C135     C      0.474610000000     0.473680000000     0.951070000000     0.386638   
C136     C      0.067150000000     0.064570000000     0.950880000000     0.386706   
C137     C      0.318590000000     0.316230000000     0.703390000000     0.397392   
C138     C      0.226550000000     0.219430000000     0.703070000000     0.396657   
C139     C      0.324820000000     0.215500000000     0.711890000000     0.391643   
C140     C      0.220000000000     0.319840000000     0.709340000000     0.393029   
C141     C      0.222050000000     0.315800000000     0.774790000000     0.391975   
C142     C      0.317010000000     0.225780000000     0.781990000000     0.384913   
C143     C      0.317220000000     0.313480000000     0.779620000000     0.38507    
C144     C      0.225980000000     0.223180000000     0.779390000000     0.384293   
C145     C      0.170230000000     0.197420000000     0.658340000000    -0.0323223  
C146     C      0.124550000000     0.086170000000     0.571610000000    -0.0292956  
C147     C      0.068350000000     0.104600000000     0.559340000000    -0.00815955 
C148     C      0.103470000000     0.065360000000     0.561120000000    -0.00837825 
C149     C      0.128600000000     0.124770000000     0.628230000000    -0.054257   
C150     C      0.167260000000     0.158220000000     0.602380000000    -0.0537294  
C151     C      0.129290000000     0.125050000000     0.600870000000     0.0616353  
C152     C      0.090990000000     0.123660000000     0.570160000000    -0.0295226  
C153     C      0.166510000000     0.158000000000     0.629740000000     0.0610731  
C154     C      0.204170000000     0.160410000000     0.661140000000    -0.058938   
C155     C      0.146990000000     0.141100000000     0.642640000000    -0.0560969  
C156     C      0.226470000000     0.179890000000     0.672310000000     0.0951016  
C157     C      0.190750000000     0.218840000000     0.668660000000    -0.00488457 
C158     C      0.148840000000     0.141900000000     0.587970000000    -0.0565895  
C159     C      0.125880000000     0.087490000000     0.909520000000    -0.0326848  
C160     C      0.167690000000     0.200830000000     0.821440000000    -0.029372   
C161     C      0.226390000000     0.188060000000     0.814610000000    -0.00914967 
C162     C      0.187550000000     0.223280000000     0.811530000000    -0.00905035 
C163     C      0.162790000000     0.163140000000     0.878970000000    -0.0541998  
C164     C      0.130730000000     0.124680000000     0.851410000000    -0.0536583  
C165     C      0.164310000000     0.162350000000     0.851640000000     0.0614487  
C166     C      0.204960000000     0.167010000000     0.824120000000    -0.0290361  
C167     C      0.129250000000     0.125440000000     0.878750000000     0.0606326  
C168     C      0.088280000000     0.120810000000     0.905770000000    -0.0586177  
C169     C      0.145410000000     0.144910000000     0.892500000000    -0.0560283  
C170     C      0.066800000000     0.099820000000     0.915770000000     0.0934699  
C171     C      0.106240000000     0.064910000000     0.919510000000    -0.0051205  
C172     C      0.148090000000     0.142940000000     0.837880000000    -0.0566072  
C173     C      0.166150000000     0.338920000000     0.660650000000    -0.0325583  
C174     C      0.127210000000     0.448130000000     0.567420000000    -0.0293087  
C175     C      0.080540000000     0.421820000000     0.540910000000    -0.00857644 
C176     C      0.117940000000     0.458860000000     0.540660000000    -0.00860746 
C177     C      0.154680000000     0.386060000000     0.589130000000    -0.0541378  
C178     C      0.138500000000     0.401430000000     0.639600000000    -0.053479   
C179     C      0.133940000000     0.406110000000     0.592390000000     0.0613424  
C180     C      0.091490000000     0.412670000000     0.567650000000    -0.0293889  
C181     C      0.159170000000     0.381300000000     0.636330000000     0.0605848  
C182     C      0.201310000000     0.374880000000     0.661510000000    -0.0588768  
C183     C      0.167250000000     0.373720000000     0.610840000000    -0.0557951  
C184     C      0.212320000000     0.365300000000     0.688240000000     0.0946838  
C185     C      0.175020000000     0.327750000000     0.687350000000    -0.00528695 
C186     C      0.125950000000     0.413800000000     0.617880000000    -0.0565842  
C187     C      0.449010000000     0.126810000000     0.565390000000    -0.0325815  
C188     C      0.342450000000     0.161900000000     0.663150000000    -0.0292243  
C189     C      0.370280000000     0.206750000000     0.690900000000    -0.00894389 
C190     C      0.332580000000     0.170140000000     0.690520000000    -0.00915625 
C191     C      0.404000000000     0.135210000000     0.638640000000    -0.0541075  
C192     C      0.387100000000     0.153750000000     0.589340000000    -0.053576   
C193     C      0.383780000000     0.155960000000     0.636790000000     0.0614043  
C194     C      0.378560000000     0.197050000000     0.663510000000    -0.0291713  
C195     C      0.407380000000     0.133040000000     0.591190000000     0.0607056  
C196     C      0.412480000000     0.092110000000     0.564310000000    -0.0587391  
C197     C      0.415730000000     0.123760000000     0.616100000000    -0.0559744  
C198     C      0.421400000000     0.081950000000     0.537100000000     0.0944502  
C199     C      0.459380000000     0.118660000000     0.538190000000    -0.00510759 
C200     C      0.375340000000     0.165180000000     0.611890000000    -0.0564339  
C201     C      0.417440000000     0.450770000000     0.907850000000    -0.032647   
C202     C      0.374330000000     0.335540000000     0.823080000000    -0.0294952  
C203     C      0.316310000000     0.349730000000     0.813840000000    -0.00898105 
C204     C      0.354190000000     0.313350000000     0.813240000000    -0.00857979 
C205     C      0.395460000000     0.393050000000     0.838260000000    -0.056486   
C206     C      0.396200000000     0.393160000000     0.892950000000    -0.0559521  
C207     C      0.377910000000     0.374920000000     0.852150000000     0.0611997  
C208     C      0.337980000000     0.370470000000     0.823620000000    -0.0293392  
C209     C      0.413820000000     0.411230000000     0.879070000000     0.0605351  
C210     C      0.453390000000     0.415490000000     0.908040000000    -0.0585138  
C211     C      0.413240000000     0.410990000000     0.851690000000    -0.053658   
C212     C      0.475300000000     0.435960000000     0.918260000000     0.0935832  
C213     C      0.437580000000     0.473000000000     0.917580000000    -0.00508661 
C214     C      0.378460000000     0.375190000000     0.879520000000    -0.0543142  
C215     C      0.374800000000     0.204070000000     0.824040000000    -0.0326309  
C216     C      0.419460000000     0.086520000000     0.905480000000    -0.029228   
C217     C      0.477860000000     0.099940000000     0.913300000000    -0.00986739 
C218     C      0.439830000000     0.063910000000     0.914010000000    -0.00928759 
C219     C      0.413290000000     0.127720000000     0.850570000000    -0.0541616  
C220     C      0.381040000000     0.164040000000     0.880450000000    -0.0537958  
C221     C      0.415250000000     0.127030000000     0.877880000000     0.0614242  
C222     C      0.456100000000     0.121260000000     0.905020000000    -0.0287435  
C223     C      0.379150000000     0.164790000000     0.853130000000     0.0607143  
C224     C      0.337530000000     0.170140000000     0.827200000000    -0.0585833  
C225     C      0.395380000000     0.146350000000     0.838220000000    -0.0559347  
C226     C      0.315820000000     0.191260000000     0.817860000000     0.093237   
C227     C      0.354740000000     0.226660000000     0.814920000000    -0.00503648 
C228     C      0.398890000000     0.145320000000     0.892810000000    -0.0565155  
C229     C      0.201460000000     0.370020000000     0.823370000000    -0.0325182  
C230     C      0.084220000000     0.417450000000     0.903350000000    -0.0289165  
C231     C      0.109810000000     0.465560000000     0.928250000000    -0.00885808 
C232     C      0.071820000000     0.428200000000     0.928880000000    -0.00916687 
C233     C      0.147740000000     0.387670000000     0.889190000000    -0.0544674  
C234     C      0.137190000000     0.399070000000     0.836510000000    -0.0541258  
C235     C      0.128220000000     0.407960000000     0.882510000000     0.0617674  
C236     C      0.119980000000     0.452480000000     0.902810000000    -0.0290521  
C237     C      0.156850000000     0.378910000000     0.843200000000     0.0604423  
C238     C      0.165700000000     0.334910000000     0.822140000000    -0.0622341  
C239     C      0.161980000000     0.373180000000     0.869750000000    -0.0560241  
C240     C      0.177080000000     0.322130000000     0.796770000000     0.0953126  
C241     C      0.214880000000     0.359600000000     0.798190000000    -0.0048923  
C242     C      0.122900000000     0.413520000000     0.855960000000    -0.0568908  
C243     C      0.375460000000     0.340370000000     0.659980000000    -0.0325672  
C244     C      0.414700000000     0.453740000000     0.571300000000    -0.0293903  
C245     C      0.472590000000     0.438880000000     0.562260000000    -0.00828246 
C246     C      0.434770000000     0.475480000000     0.560530000000    -0.00829107 
C247     C      0.393710000000     0.397080000000     0.588830000000    -0.0566324  
C248     C      0.395280000000     0.397890000000     0.643510000000    -0.0560913  
C249     C      0.411580000000     0.415600000000     0.601850000000     0.0617625  
C250     C      0.450870000000     0.418710000000     0.572720000000    -0.0292386  
C251     C      0.377410000000     0.379370000000     0.630500000000     0.0611246  
C252     C      0.339180000000     0.375210000000     0.660830000000    -0.0588565  
C253     C      0.376760000000     0.379170000000     0.603130000000    -0.053649   
C254     C      0.317750000000     0.354700000000     0.671630000000     0.0950456  
C255     C      0.355990000000     0.317970000000     0.670450000000    -0.00476598 
C256     C      0.412190000000     0.415830000000     0.629210000000    -0.0542572  
C257     C      0.472610000000     0.974720000000     0.027910000000     0.395363   
C258     C      0.067190000000     0.566480000000     0.027120000000     0.394806   
C259     C      0.072340000000     0.967210000000     0.019890000000     0.391195   
C260     C      0.467310000000     0.573330000000     0.016840000000     0.394188   
C261     C      0.476570000000     0.564090000000     0.447970000000     0.381721   
C262     C      0.066850000000     0.971600000000     0.453380000000     0.384322   
C263     C      0.474610000000     0.973680000000     0.451070000000     0.386792   
C264     C      0.067150000000     0.564570000000     0.450880000000     0.386913   
C265     C      0.318590000000     0.816230000000     0.203390000000     0.39739    
C266     C      0.226550000000     0.719430000000     0.203070000000     0.396761   
C267     C      0.324820000000     0.715500000000     0.211890000000     0.391641   
C268     C      0.220000000000     0.819840000000     0.209340000000     0.393162   
C269     C      0.222050000000     0.815800000000     0.274790000000     0.391975   
C270     C      0.317010000000     0.725780000000     0.281990000000     0.384909   
C271     C      0.317220000000     0.813480000000     0.279620000000     0.385071   
C272     C      0.225980000000     0.723170000000     0.279390000000     0.384247   
C273     C      0.170230000000     0.697430000000     0.158340000000    -0.0323603  
C274     C      0.124550000000     0.586170000000     0.071610000000    -0.0292965  
C275     C      0.068350000000     0.604600000000     0.059340000000    -0.008191   
C276     C      0.103470000000     0.565360000000     0.061120000000    -0.0083836  
C277     C      0.128600000000     0.624770000000     0.128230000000    -0.0542806  
C278     C      0.167260000000     0.658220000000     0.102380000000    -0.0536474  
C279     C      0.129290000000     0.625050000000     0.100870000000     0.0616865  
C280     C      0.090990000000     0.623650000000     0.070160000000    -0.0294188  
C281     C      0.166510000000     0.658000000000     0.129740000000     0.061026   
C282     C      0.204170000000     0.660410000000     0.161140000000    -0.0588988  
C283     C      0.146990000000     0.641100000000     0.142630000000    -0.0559891  
C284     C      0.226470000000     0.679890000000     0.172310000000     0.0950346  
C285     C      0.190750000000     0.718840000000     0.168670000000    -0.00483677 
C286     C      0.148840000000     0.641900000000     0.087970000000    -0.0565863  
C287     C      0.125880000000     0.587490000000     0.409520000000    -0.0327203  
C288     C      0.167690000000     0.700830000000     0.321440000000    -0.0293777  
C289     C      0.226390000000     0.688060000000     0.314610000000    -0.00915406 
C290     C      0.187550000000     0.723280000000     0.311530000000    -0.00904133 
C291     C      0.162790000000     0.663150000000     0.378970000000    -0.0542035  
C292     C      0.130730000000     0.624680000000     0.351410000000    -0.0536591  
C293     C      0.164310000000     0.662350000000     0.351640000000     0.0614844  
C294     C      0.204960000000     0.667010000000     0.324120000000    -0.0290398  
C295     C      0.129250000000     0.625440000000     0.378750000000     0.0606976  
C296     C      0.088280000000     0.620820000000     0.405770000000    -0.0587016  
C297     C      0.145410000000     0.644910000000     0.392500000000    -0.0560052  
C298     C      0.066800000000     0.599820000000     0.415770000000     0.0935022  
C299     C      0.106240000000     0.564910000000     0.419510000000    -0.0051273  
C300     C      0.148090000000     0.642940000000     0.337880000000    -0.0565939  
C301     C      0.166150000000     0.838920000000     0.160650000000    -0.0325731  
C302     C      0.127210000000     0.948130000000     0.067420000000    -0.0292824  
C303     C      0.080540000000     0.921820000000     0.040910000000    -0.00861151 
C304     C      0.117940000000     0.958860000000     0.040660000000    -0.00864833 
C305     C      0.154680000000     0.886050000000     0.089130000000    -0.0541143  
C306     C      0.138500000000     0.901420000000     0.139590000000    -0.0533796  
C307     C      0.133940000000     0.906110000000     0.092390000000     0.061385   
C308     C      0.091490000000     0.912670000000     0.067650000000    -0.0293622  
C309     C      0.159170000000     0.881300000000     0.136330000000     0.0605708  
C310     C      0.201310000000     0.874880000000     0.161510000000    -0.0589119  
C311     C      0.167250000000     0.873720000000     0.110840000000    -0.0557363  
C312     C      0.212320000000     0.865300000000     0.188240000000     0.0947545  
C313     C      0.175020000000     0.827750000000     0.187350000000    -0.00527505 
C314     C      0.125950000000     0.913800000000     0.117880000000    -0.0566041  
C315     C      0.449010000000     0.626810000000     0.065390000000    -0.0325594  
C316     C      0.342450000000     0.661900000000     0.163150000000    -0.029236   
C317     C      0.370280000000     0.706750000000     0.190900000000    -0.00894567 
C318     C      0.332580000000     0.670140000000     0.190520000000    -0.00915496 
C319     C      0.404000000000     0.635200000000     0.138640000000    -0.0540488  
C320     C      0.387100000000     0.653750000000     0.089340000000    -0.0535161  
C321     C      0.383780000000     0.655960000000     0.136790000000     0.0613894  
C322     C      0.378560000000     0.697050000000     0.163510000000    -0.0291787  
C323     C      0.407380000000     0.633030000000     0.091190000000     0.0607513  
C324     C      0.412480000000     0.592110000000     0.064310000000    -0.0587719  
C325     C      0.415730000000     0.623760000000     0.116100000000    -0.0559866  
C326     C      0.421400000000     0.581950000000     0.037110000000     0.0944284  
C327     C      0.459380000000     0.618660000000     0.038190000000    -0.00514787 
C328     C      0.375340000000     0.665180000000     0.111890000000    -0.0564038  
C329     C      0.417440000000     0.950770000000     0.407850000000    -0.032644   
C330     C      0.374330000000     0.835540000000     0.323080000000    -0.029489   
C331     C      0.316310000000     0.849730000000     0.313830000000    -0.00894197 
C332     C      0.354190000000     0.813350000000     0.313240000000    -0.00861537 
C333     C      0.395460000000     0.893050000000     0.338260000000    -0.0564803  
C334     C      0.396200000000     0.893160000000     0.392950000000    -0.0559399  
C335     C      0.377910000000     0.874920000000     0.352150000000     0.0612094  
C336     C      0.337980000000     0.870470000000     0.323620000000    -0.0293621  
C337     C      0.413820000000     0.911230000000     0.379070000000     0.060557   
C338     C      0.453390000000     0.915490000000     0.408040000000    -0.0584981  
C339     C      0.413240000000     0.910990000000     0.351690000000    -0.0536081  
C340     C      0.475300000000     0.935960000000     0.418260000000     0.0936017  
C341     C      0.437580000000     0.973000000000     0.417580000000    -0.00510903 
C342     C      0.378460000000     0.875190000000     0.379520000000    -0.0542312  
C343     C      0.374800000000     0.704070000000     0.324040000000    -0.0326331  
C344     C      0.419460000000     0.586520000000     0.405480000000    -0.0292472  
C345     C      0.477860000000     0.599940000000     0.413300000000    -0.00984075 
C346     C      0.439830000000     0.563910000000     0.414010000000    -0.00923504 
C347     C      0.413290000000     0.627720000000     0.350570000000    -0.0541503  
C348     C      0.381040000000     0.664040000000     0.380450000000    -0.0537502  
C349     C      0.415250000000     0.627030000000     0.377880000000     0.0614544  
C350     C      0.456100000000     0.621260000000     0.405020000000    -0.0287609  
C351     C      0.379150000000     0.664790000000     0.353130000000     0.0607295  
C352     C      0.337530000000     0.670140000000     0.327200000000    -0.058594   
C353     C      0.395380000000     0.646350000000     0.338220000000    -0.0559183  
C354     C      0.315820000000     0.691260000000     0.317860000000     0.0932446  
C355     C      0.354740000000     0.726660000000     0.314920000000    -0.00504228 
C356     C      0.398890000000     0.645320000000     0.392810000000    -0.0564894  
C357     C      0.201460000000     0.870020000000     0.323370000000    -0.0325139  
C358     C      0.084220000000     0.917450000000     0.403350000000    -0.0289301  
C359     C      0.109810000000     0.965550000000     0.428250000000    -0.0087548  
C360     C      0.071820000000     0.928200000000     0.428880000000    -0.00921282 
C361     C      0.147740000000     0.887670000000     0.389190000000    -0.054439   
C362     C      0.137190000000     0.899070000000     0.336510000000    -0.0541003  
C363     C      0.128220000000     0.907960000000     0.382510000000     0.0618124  
C364     C      0.119980000000     0.952480000000     0.402810000000    -0.0290841  
C365     C      0.156850000000     0.878910000000     0.343200000000     0.060449   
C366     C      0.165700000000     0.834910000000     0.322140000000    -0.0622455  
C367     C      0.161980000000     0.873180000000     0.369750000000    -0.0559837  
C368     C      0.177080000000     0.822130000000     0.296770000000     0.0953123  
C369     C      0.214880000000     0.859600000000     0.298190000000    -0.00494034 
C370     C      0.122900000000     0.913520000000     0.355960000000    -0.0568875  
C371     C      0.375460000000     0.840370000000     0.159980000000    -0.0325704  
C372     C      0.414700000000     0.953740000000     0.071300000000    -0.0293907  
C373     C      0.472590000000     0.938880000000     0.062260000000    -0.00827983 
C374     C      0.434770000000     0.975480000000     0.060530000000    -0.00830076 
C375     C      0.393710000000     0.897080000000     0.088840000000    -0.0565506  
C376     C      0.395280000000     0.897890000000     0.143510000000    -0.0560912  
C377     C      0.411580000000     0.915600000000     0.101850000000     0.0617771  
C378     C      0.450870000000     0.918710000000     0.072720000000    -0.0292464  
C379     C      0.377410000000     0.879370000000     0.130500000000     0.0611756  
C380     C      0.339180000000     0.875210000000     0.160830000000    -0.0588938  
C381     C      0.376760000000     0.879170000000     0.103140000000    -0.0536253  
C382     C      0.317750000000     0.854700000000     0.171630000000     0.0950652  
C383     C      0.355990000000     0.817970000000     0.170450000000    -0.00477033 
C384     C      0.412190000000     0.915830000000     0.129210000000    -0.0542281  
C385     C      0.472610000000     0.974720000000     0.527910000000     0.395616   
C386     C      0.067190000000     0.566480000000     0.527120000000     0.394997   
C387     C      0.072340000000     0.967210000000     0.519890000000     0.391383   
C388     C      0.467310000000     0.573330000000     0.516840000000     0.394349   
C389     C      0.476570000000     0.564090000000     0.947970000000     0.381537   
C390     C      0.066850000000     0.971600000000     0.953380000000     0.38413    
C391     C      0.474610000000     0.973680000000     0.951070000000     0.38661    
C392     C      0.067150000000     0.564570000000     0.950880000000     0.386726   
C393     C      0.318590000000     0.816230000000     0.703390000000     0.397393   
C394     C      0.226550000000     0.719430000000     0.703070000000     0.396656   
C395     C      0.324820000000     0.715500000000     0.711890000000     0.391642   
C396     C      0.220000000000     0.819840000000     0.709340000000     0.393163   
C397     C      0.222050000000     0.815800000000     0.774790000000     0.391974   
C398     C      0.317010000000     0.725780000000     0.781990000000     0.384912   
C399     C      0.317220000000     0.813480000000     0.779620000000     0.385072   
C400     C      0.225980000000     0.723170000000     0.779390000000     0.384249   
C401     C      0.170230000000     0.697430000000     0.658340000000    -0.0323476  
C402     C      0.124550000000     0.586170000000     0.571610000000    -0.0292836  
C403     C      0.068350000000     0.604600000000     0.559340000000    -0.00820113 
C404     C      0.103470000000     0.565360000000     0.561120000000    -0.0083954  
C405     C      0.128600000000     0.624770000000     0.628230000000    -0.0542551  
C406     C      0.167260000000     0.658220000000     0.602380000000    -0.0536993  
C407     C      0.129290000000     0.625050000000     0.600870000000     0.0616569  
C408     C      0.090990000000     0.623650000000     0.570160000000    -0.0294072  
C409     C      0.166510000000     0.658000000000     0.629740000000     0.0610389  
C410     C      0.204170000000     0.660410000000     0.661140000000    -0.0589235  
C411     C      0.146990000000     0.641100000000     0.642640000000    -0.056065   
C412     C      0.226470000000     0.679890000000     0.672310000000     0.0951045  
C413     C      0.190750000000     0.718840000000     0.668660000000    -0.00486072 
C414     C      0.148840000000     0.641900000000     0.587970000000    -0.0565975  
C415     C      0.125880000000     0.587490000000     0.909520000000    -0.0327036  
C416     C      0.167690000000     0.700830000000     0.821440000000    -0.0293794  
C417     C      0.226390000000     0.688060000000     0.814610000000    -0.00914914 
C418     C      0.187550000000     0.723280000000     0.811530000000    -0.00903599 
C419     C      0.162790000000     0.663150000000     0.878970000000    -0.0542409  
C420     C      0.130730000000     0.624680000000     0.851410000000    -0.0536601  
C421     C      0.164310000000     0.662350000000     0.851640000000     0.0614725  
C422     C      0.204960000000     0.667010000000     0.824120000000    -0.029041   
C423     C      0.129250000000     0.625440000000     0.878750000000     0.0606811  
C424     C      0.088280000000     0.620820000000     0.905770000000    -0.0586881  
C425     C      0.145410000000     0.644910000000     0.892500000000    -0.0560279  
C426     C      0.066800000000     0.599820000000     0.915770000000     0.0934878  
C427     C      0.106240000000     0.564910000000     0.919510000000    -0.00515289 
C428     C      0.148090000000     0.642940000000     0.837880000000    -0.0565971  
C429     C      0.166150000000     0.838920000000     0.660650000000    -0.0325619  
C430     C      0.127210000000     0.948130000000     0.567420000000    -0.0293092  
C431     C      0.080540000000     0.921820000000     0.540910000000    -0.00856942 
C432     C      0.117940000000     0.958860000000     0.540660000000    -0.00861244 
C433     C      0.154680000000     0.886050000000     0.589130000000    -0.0541227  
C434     C      0.138500000000     0.901420000000     0.639600000000    -0.0534723  
C435     C      0.133940000000     0.906110000000     0.592390000000     0.0613362  
C436     C      0.091490000000     0.912670000000     0.567650000000    -0.0293937  
C437     C      0.159170000000     0.881300000000     0.636330000000     0.0606086  
C438     C      0.201310000000     0.874880000000     0.661510000000    -0.0589038  
C439     C      0.167250000000     0.873720000000     0.610840000000    -0.0557892  
C440     C      0.212320000000     0.865300000000     0.688240000000     0.0947501  
C441     C      0.175020000000     0.827750000000     0.687350000000    -0.00528012 
C442     C      0.125950000000     0.913800000000     0.617880000000    -0.0565714  
C443     C      0.449010000000     0.626810000000     0.565390000000    -0.0325852  
C444     C      0.342450000000     0.661900000000     0.663150000000    -0.0292248  
C445     C      0.370280000000     0.706750000000     0.690900000000    -0.00894568 
C446     C      0.332580000000     0.670140000000     0.690520000000    -0.00915851 
C447     C      0.404000000000     0.635200000000     0.638640000000    -0.0540588  
C448     C      0.387100000000     0.653750000000     0.589340000000    -0.0535351  
C449     C      0.383780000000     0.655960000000     0.636790000000     0.0613909  
C450     C      0.378560000000     0.697050000000     0.663510000000    -0.0291713  
C451     C      0.407380000000     0.633030000000     0.591190000000     0.0607174  
C452     C      0.412480000000     0.592110000000     0.564310000000    -0.0587468  
C453     C      0.415730000000     0.623760000000     0.616100000000    -0.0559796  
C454     C      0.421400000000     0.581950000000     0.537100000000     0.0944594  
C455     C      0.459380000000     0.618660000000     0.538190000000    -0.00510166 
C456     C      0.375340000000     0.665180000000     0.611890000000    -0.0564365  
C457     C      0.417440000000     0.950770000000     0.907850000000    -0.0326276  
C458     C      0.374330000000     0.835540000000     0.823080000000    -0.029489   
C459     C      0.316310000000     0.849730000000     0.813840000000    -0.0089791  
C460     C      0.354190000000     0.813350000000     0.813240000000    -0.00861133 
C461     C      0.395460000000     0.893050000000     0.838260000000    -0.0564912  
C462     C      0.396200000000     0.893160000000     0.892950000000    -0.0559401  
C463     C      0.377910000000     0.874920000000     0.852150000000     0.0612117  
C464     C      0.337980000000     0.870470000000     0.823620000000    -0.0293445  
C465     C      0.413820000000     0.911230000000     0.879070000000     0.060532   
C466     C      0.453390000000     0.915490000000     0.908040000000    -0.0584882  
C467     C      0.413240000000     0.910990000000     0.851690000000    -0.053602   
C468     C      0.475300000000     0.935960000000     0.918260000000     0.0935906  
C469     C      0.437580000000     0.973000000000     0.917580000000    -0.00513733 
C470     C      0.378460000000     0.875190000000     0.879520000000    -0.0543127  
C471     C      0.374800000000     0.704070000000     0.824040000000    -0.0326338  
C472     C      0.419460000000     0.586520000000     0.905480000000    -0.0292296  
C473     C      0.477860000000     0.599940000000     0.913300000000    -0.00987108 
C474     C      0.439830000000     0.563910000000     0.914010000000    -0.00926028 
C475     C      0.413290000000     0.627720000000     0.850570000000    -0.0541513  
C476     C      0.381040000000     0.664040000000     0.880450000000    -0.0537884  
C477     C      0.415250000000     0.627030000000     0.877880000000     0.0614381  
C478     C      0.456100000000     0.621260000000     0.905020000000    -0.0287402  
C479     C      0.379150000000     0.664790000000     0.853130000000     0.0607169  
C480     C      0.337530000000     0.670140000000     0.827200000000    -0.0585893  
C481     C      0.395380000000     0.646350000000     0.838220000000    -0.0559214  
C482     C      0.315820000000     0.691260000000     0.817860000000     0.0932396  
C483     C      0.354740000000     0.726660000000     0.814920000000    -0.00503652 
C484     C      0.398890000000     0.645320000000     0.892810000000    -0.0565134  
C485     C      0.201460000000     0.870020000000     0.823370000000    -0.0325015  
C486     C      0.084220000000     0.917450000000     0.903350000000    -0.0289505  
C487     C      0.109810000000     0.965550000000     0.928250000000    -0.00874033 
C488     C      0.071820000000     0.928200000000     0.928880000000    -0.00919773 
C489     C      0.147740000000     0.887670000000     0.889190000000    -0.0544616  
C490     C      0.137190000000     0.899070000000     0.836510000000    -0.0541095  
C491     C      0.128220000000     0.907960000000     0.882510000000     0.0617768  
C492     C      0.119980000000     0.952480000000     0.902810000000    -0.0290983  
C493     C      0.156850000000     0.878910000000     0.843200000000     0.0604488  
C494     C      0.165700000000     0.834910000000     0.822140000000    -0.0622348  
C495     C      0.161980000000     0.873180000000     0.869750000000    -0.0560181  
C496     C      0.177080000000     0.822130000000     0.796770000000     0.0953111  
C497     C      0.214880000000     0.859600000000     0.798190000000    -0.00494533 
C498     C      0.122900000000     0.913520000000     0.855960000000    -0.0568801  
C499     C      0.375460000000     0.840370000000     0.659980000000    -0.0325707  
C500     C      0.414700000000     0.953740000000     0.571300000000    -0.0293786  
C501     C      0.472590000000     0.938880000000     0.562260000000    -0.00828512 
C502     C      0.434770000000     0.975480000000     0.560530000000    -0.00830977 
C503     C      0.393710000000     0.897080000000     0.588830000000    -0.0566322  
C504     C      0.395280000000     0.897890000000     0.643510000000    -0.0560753  
C505     C      0.411580000000     0.915600000000     0.601850000000     0.0617792  
C506     C      0.450870000000     0.918710000000     0.572720000000    -0.029235   
C507     C      0.377410000000     0.879370000000     0.630500000000     0.0611277  
C508     C      0.339180000000     0.875210000000     0.660830000000    -0.0588609  
C509     C      0.376760000000     0.879170000000     0.603130000000    -0.0536357  
C510     C      0.317750000000     0.854700000000     0.671630000000     0.0950535  
C511     C      0.355990000000     0.817970000000     0.670450000000    -0.0047652  
C512     C      0.412190000000     0.915830000000     0.629210000000    -0.0542444  
C513     C      0.972610000000     0.474720000000     0.027910000000     0.395355   
C514     C      0.567190000000     0.066480000000     0.027120000000     0.394811   
C515     C      0.572340000000     0.467210000000     0.019890000000     0.391247   
C516     C      0.967310000000     0.073330000000     0.016840000000     0.394138   
C517     C      0.976570000000     0.064080000000     0.447970000000     0.381721   
C518     C      0.566850000000     0.471600000000     0.453380000000     0.384291   
C519     C      0.974610000000     0.473680000000     0.451070000000     0.386807   
C520     C      0.567150000000     0.064570000000     0.450880000000     0.386908   
C521     C      0.818590000000     0.316230000000     0.203390000000     0.397387   
C522     C      0.726550000000     0.219430000000     0.203070000000     0.39675    
C523     C      0.824820000000     0.215500000000     0.211890000000     0.391523   
C524     C      0.720000000000     0.319840000000     0.209340000000     0.392807   
C525     C      0.722050000000     0.315800000000     0.274790000000     0.391975   
C526     C      0.817010000000     0.225780000000     0.281990000000     0.384917   
C527     C      0.817220000000     0.313480000000     0.279620000000     0.385065   
C528     C      0.725980000000     0.223180000000     0.279390000000     0.384278   
C529     C      0.670230000000     0.197420000000     0.158340000000    -0.0323419  
C530     C      0.624550000000     0.086170000000     0.071610000000    -0.0293036  
C531     C      0.568350000000     0.104600000000     0.059340000000    -0.00816604 
C532     C      0.603470000000     0.065360000000     0.061120000000    -0.00837065 
C533     C      0.628590000000     0.124770000000     0.128230000000    -0.0543289  
C534     C      0.667260000000     0.158220000000     0.102380000000    -0.0536587  
C535     C      0.629290000000     0.125050000000     0.100870000000     0.0617109  
C536     C      0.590990000000     0.123660000000     0.070160000000    -0.0295216  
C537     C      0.666510000000     0.158000000000     0.129740000000     0.0610546  
C538     C      0.704170000000     0.160410000000     0.161140000000    -0.0589165  
C539     C      0.646990000000     0.141100000000     0.142630000000    -0.055988   
C540     C      0.726470000000     0.179890000000     0.172310000000     0.0950297  
C541     C      0.690750000000     0.218840000000     0.168670000000    -0.00485815 
C542     C      0.648840000000     0.141900000000     0.087970000000    -0.056591   
C543     C      0.625880000000     0.087490000000     0.409520000000    -0.0327019  
C544     C      0.667690000000     0.200830000000     0.321440000000    -0.0293768  
C545     C      0.726390000000     0.188060000000     0.314610000000    -0.00915565 
C546     C      0.687550000000     0.223280000000     0.311530000000    -0.00905334 
C547     C      0.662790000000     0.163140000000     0.378970000000    -0.0541604  
C548     C      0.630740000000     0.124680000000     0.351410000000    -0.0535939  
C549     C      0.664310000000     0.162350000000     0.351640000000     0.0614723  
C550     C      0.704960000000     0.167010000000     0.324120000000    -0.0290376  
C551     C      0.629250000000     0.125440000000     0.378750000000     0.0606383  
C552     C      0.588280000000     0.120810000000     0.405770000000    -0.0586394  
C553     C      0.645410000000     0.144910000000     0.392500000000    -0.0559881  
C554     C      0.566800000000     0.099820000000     0.415770000000     0.0935103  
C555     C      0.606240000000     0.064910000000     0.419510000000    -0.00509751 
C556     C      0.648090000000     0.142940000000     0.337880000000    -0.0566023  
C557     C      0.666150000000     0.338920000000     0.160650000000    -0.0325882  
C558     C      0.627210000000     0.448130000000     0.067420000000    -0.0292871  
C559     C      0.580540000000     0.421820000000     0.040910000000    -0.00861982 
C560     C      0.617940000000     0.458860000000     0.040660000000    -0.00863632 
C561     C      0.654680000000     0.386060000000     0.089130000000    -0.0541235  
C562     C      0.638500000000     0.401430000000     0.139590000000    -0.0533668  
C563     C      0.633940000000     0.406110000000     0.092390000000     0.0614033  
C564     C      0.591490000000     0.412670000000     0.067650000000    -0.029359   
C565     C      0.659170000000     0.381300000000     0.136330000000     0.0605543  
C566     C      0.701310000000     0.374880000000     0.161510000000    -0.0588828  
C567     C      0.667250000000     0.373720000000     0.110840000000    -0.0557357  
C568     C      0.712320000000     0.365300000000     0.188240000000     0.094677   
C569     C      0.675020000000     0.327750000000     0.187350000000    -0.00528327 
C570     C      0.625950000000     0.413800000000     0.117880000000    -0.0566046  
C571     C      0.949010000000     0.126810000000     0.065390000000    -0.0325025  
C572     C      0.842450000000     0.161900000000     0.163150000000    -0.0292507  
C573     C      0.870280000000     0.206750000000     0.190900000000    -0.00895123 
C574     C      0.832580000000     0.170140000000     0.190520000000    -0.0091533  
C575     C      0.904000000000     0.135210000000     0.138640000000    -0.0540787  
C576     C      0.887100000000     0.153750000000     0.089340000000    -0.0535644  
C577     C      0.883780000000     0.155960000000     0.136790000000     0.0614096  
C578     C      0.878560000000     0.197050000000     0.163510000000    -0.0291777  
C579     C      0.907380000000     0.133040000000     0.091190000000     0.0607353  
C580     C      0.912480000000     0.092110000000     0.064310000000    -0.0587611  
C581     C      0.915730000000     0.123760000000     0.116100000000    -0.0559576  
C582     C      0.921400000000     0.081950000000     0.037110000000     0.0944204  
C583     C      0.959380000000     0.118660000000     0.038190000000    -0.00517821 
C584     C      0.875340000000     0.165180000000     0.111890000000    -0.0563857  
C585     C      0.917450000000     0.450770000000     0.407850000000    -0.032555   
C586     C      0.874330000000     0.335540000000     0.323080000000    -0.0295332  
C587     C      0.816310000000     0.349730000000     0.313830000000    -0.00895321 
C588     C      0.854190000000     0.313350000000     0.313240000000    -0.00857394 
C589     C      0.895460000000     0.393050000000     0.338260000000    -0.0564457  
C590     C      0.896200000000     0.393160000000     0.392950000000    -0.055968   
C591     C      0.877910000000     0.374920000000     0.352150000000     0.0611965  
C592     C      0.837980000000     0.370470000000     0.323620000000    -0.0293368  
C593     C      0.913820000000     0.411230000000     0.379070000000     0.0606218  
C594     C      0.953390000000     0.415490000000     0.408040000000    -0.0585373  
C595     C      0.913240000000     0.410990000000     0.351690000000    -0.0536716  
C596     C      0.975300000000     0.435960000000     0.418260000000     0.0936023  
C597     C      0.937580000000     0.473000000000     0.417580000000    -0.00510094 
C598     C      0.878460000000     0.375190000000     0.379520000000    -0.0542106  
C599     C      0.874800000000     0.204070000000     0.324040000000    -0.0326395  
C600     C      0.919460000000     0.086520000000     0.405480000000    -0.0292802  
C601     C      0.977860000000     0.099940000000     0.413300000000    -0.00986103 
C602     C      0.939840000000     0.063910000000     0.414010000000    -0.00917937 
C603     C      0.913290000000     0.127720000000     0.350570000000    -0.0541479  
C604     C      0.881040000000     0.164040000000     0.380450000000    -0.0537304  
C605     C      0.915250000000     0.127030000000     0.377880000000     0.0614632  
C606     C      0.956100000000     0.121260000000     0.405020000000    -0.028751   
C607     C      0.879150000000     0.164790000000     0.353130000000     0.0606995  
C608     C      0.837520000000     0.170140000000     0.327200000000    -0.0586753  
C609     C      0.895390000000     0.146350000000     0.338220000000    -0.0558777  
C610     C      0.815820000000     0.191260000000     0.317860000000     0.0932861  
C611     C      0.854740000000     0.226660000000     0.314920000000    -0.00503714 
C612     C      0.898890000000     0.145320000000     0.392810000000    -0.0564946  
C613     C      0.701460000000     0.370020000000     0.323370000000    -0.0325319  
C614     C      0.584220000000     0.417450000000     0.403350000000    -0.028841   
C615     C      0.609810000000     0.465560000000     0.428250000000    -0.0088606  
C616     C      0.571820000000     0.428200000000     0.428880000000    -0.0092076  
C617     C      0.647740000000     0.387670000000     0.389190000000    -0.0544246  
C618     C      0.637190000000     0.399070000000     0.336510000000    -0.0541063  
C619     C      0.628220000000     0.407960000000     0.382510000000     0.0617822  
C620     C      0.619980000000     0.452480000000     0.402810000000    -0.0290598  
C621     C      0.656850000000     0.378910000000     0.343200000000     0.060455   
C622     C      0.665700000000     0.334910000000     0.322140000000    -0.0622521  
C623     C      0.661980000000     0.373180000000     0.369750000000    -0.0559889  
C624     C      0.677080000000     0.322130000000     0.296770000000     0.0953207  
C625     C      0.714880000000     0.359600000000     0.298190000000    -0.00488896 
C626     C      0.622900000000     0.413520000000     0.355960000000    -0.0568688  
C627     C      0.875460000000     0.340370000000     0.159980000000    -0.0325765  
C628     C      0.914700000000     0.453740000000     0.071300000000    -0.0294291  
C629     C      0.972590000000     0.438880000000     0.062260000000    -0.00829944 
C630     C      0.934770000000     0.475480000000     0.060530000000    -0.00827709 
C631     C      0.893710000000     0.397080000000     0.088840000000    -0.056547   
C632     C      0.895280000000     0.397890000000     0.143510000000    -0.0560888  
C633     C      0.911580000000     0.415600000000     0.101850000000     0.0617783  
C634     C      0.950870000000     0.418710000000     0.072720000000    -0.0292382  
C635     C      0.877410000000     0.379370000000     0.130500000000     0.0611773  
C636     C      0.839180000000     0.375210000000     0.160830000000    -0.0589263  
C637     C      0.876760000000     0.379170000000     0.103140000000    -0.0536273  
C638     C      0.817760000000     0.354700000000     0.171630000000     0.0950683  
C639     C      0.855990000000     0.317970000000     0.170450000000    -0.0047688  
C640     C      0.912190000000     0.415830000000     0.129210000000    -0.0542261  
C641     C      0.972610000000     0.474720000000     0.527910000000     0.395607   
C642     C      0.567190000000     0.066480000000     0.527120000000     0.395003   
C643     C      0.572340000000     0.467210000000     0.519890000000     0.391435   
C644     C      0.967310000000     0.073330000000     0.516840000000     0.394298   
C645     C      0.976570000000     0.064080000000     0.947970000000     0.381537   
C646     C      0.566850000000     0.471600000000     0.953380000000     0.384099   
C647     C      0.974610000000     0.473680000000     0.951070000000     0.386626   
C648     C      0.567150000000     0.064570000000     0.950880000000     0.386721   
C649     C      0.818590000000     0.316230000000     0.703390000000     0.39739    
C650     C      0.726550000000     0.219430000000     0.703070000000     0.396645   
C651     C      0.824820000000     0.215500000000     0.711890000000     0.391525   
C652     C      0.720000000000     0.319840000000     0.709340000000     0.392808   
C653     C      0.722050000000     0.315800000000     0.774790000000     0.391974   
C654     C      0.817010000000     0.225780000000     0.781990000000     0.38492    
C655     C      0.817220000000     0.313480000000     0.779620000000     0.385066   
C656     C      0.725980000000     0.223180000000     0.779390000000     0.38428    
C657     C      0.670230000000     0.197420000000     0.658340000000    -0.0323292  
C658     C      0.624550000000     0.086170000000     0.571610000000    -0.0292907  
C659     C      0.568350000000     0.104600000000     0.559340000000    -0.0081762  
C660     C      0.603470000000     0.065360000000     0.561120000000    -0.00838242 
C661     C      0.628590000000     0.124770000000     0.628230000000    -0.0543034  
C662     C      0.667260000000     0.158220000000     0.602380000000    -0.0537106  
C663     C      0.629290000000     0.125050000000     0.600870000000     0.0616814  
C664     C      0.590990000000     0.123660000000     0.570160000000    -0.02951    
C665     C      0.666510000000     0.158000000000     0.629740000000     0.0610675  
C666     C      0.704170000000     0.160410000000     0.661140000000    -0.0589411  
C667     C      0.646990000000     0.141100000000     0.642640000000    -0.0560638  
C668     C      0.726470000000     0.179890000000     0.672310000000     0.0950997  
C669     C      0.690750000000     0.218840000000     0.668660000000    -0.0048821  
C670     C      0.648840000000     0.141900000000     0.587970000000    -0.0566022  
C671     C      0.625880000000     0.087490000000     0.909520000000    -0.0326851  
C672     C      0.667690000000     0.200830000000     0.821440000000    -0.0293784  
C673     C      0.726390000000     0.188060000000     0.814610000000    -0.00915073 
C674     C      0.687550000000     0.223280000000     0.811530000000    -0.009048   
C675     C      0.662790000000     0.163140000000     0.878970000000    -0.0541978  
C676     C      0.630740000000     0.124680000000     0.851410000000    -0.0535949  
C677     C      0.664310000000     0.162350000000     0.851640000000     0.0614603  
C678     C      0.704960000000     0.167010000000     0.824120000000    -0.0290388  
C679     C      0.629250000000     0.125440000000     0.878750000000     0.0606217  
C680     C      0.588280000000     0.120810000000     0.905770000000    -0.0586259  
C681     C      0.645410000000     0.144910000000     0.892500000000    -0.0560108  
C682     C      0.566800000000     0.099820000000     0.915770000000     0.0934959  
C683     C      0.606240000000     0.064910000000     0.919510000000    -0.00512317 
C684     C      0.648090000000     0.142940000000     0.837880000000    -0.0566055  
C685     C      0.666150000000     0.338920000000     0.660650000000    -0.0325769  
C686     C      0.627210000000     0.448130000000     0.567420000000    -0.029314   
C687     C      0.580540000000     0.421820000000     0.540910000000    -0.00857768 
C688     C      0.617940000000     0.458860000000     0.540660000000    -0.00860033 
C689     C      0.654680000000     0.386060000000     0.589130000000    -0.0541319  
C690     C      0.638500000000     0.401430000000     0.639600000000    -0.0534596  
C691     C      0.633940000000     0.406110000000     0.592390000000     0.0613545  
C692     C      0.591490000000     0.412670000000     0.567650000000    -0.0293906  
C693     C      0.659170000000     0.381300000000     0.636330000000     0.060592   
C694     C      0.701310000000     0.374880000000     0.661510000000    -0.0588747  
C695     C      0.667250000000     0.373720000000     0.610840000000    -0.0557887  
C696     C      0.712320000000     0.365300000000     0.688240000000     0.0946726  
C697     C      0.675020000000     0.327750000000     0.687350000000    -0.00528834 
C698     C      0.625950000000     0.413800000000     0.617880000000    -0.0565719  
C699     C      0.949010000000     0.126810000000     0.565390000000    -0.0325283  
C700     C      0.842450000000     0.161900000000     0.663150000000    -0.0292395  
C701     C      0.870280000000     0.206750000000     0.690900000000    -0.00895124 
C702     C      0.832580000000     0.170140000000     0.690520000000    -0.00915685 
C703     C      0.904000000000     0.135210000000     0.638640000000    -0.0540886  
C704     C      0.887100000000     0.153750000000     0.589340000000    -0.0535833  
C705     C      0.883780000000     0.155960000000     0.636790000000     0.0614111  
C706     C      0.878560000000     0.197050000000     0.663510000000    -0.0291703  
C707     C      0.907380000000     0.133040000000     0.591190000000     0.0607014  
C708     C      0.912480000000     0.092110000000     0.564310000000    -0.0587361  
C709     C      0.915730000000     0.123760000000     0.616100000000    -0.0559505  
C710     C      0.921400000000     0.081950000000     0.537100000000     0.0944514  
C711     C      0.959380000000     0.118660000000     0.538190000000    -0.00513211 
C712     C      0.875340000000     0.165180000000     0.611890000000    -0.0564185  
C713     C      0.917450000000     0.450770000000     0.907850000000    -0.0325386  
C714     C      0.874330000000     0.335540000000     0.823080000000    -0.0295332  
C715     C      0.816310000000     0.349730000000     0.813840000000    -0.00899035 
C716     C      0.854190000000     0.313350000000     0.813240000000    -0.0085699  
C717     C      0.895460000000     0.393050000000     0.838260000000    -0.0564565  
C718     C      0.896200000000     0.393160000000     0.892950000000    -0.0559683  
C719     C      0.877910000000     0.374920000000     0.852150000000     0.0611988  
C720     C      0.837980000000     0.370470000000     0.823620000000    -0.0293192  
C721     C      0.913820000000     0.411230000000     0.879070000000     0.0605968  
C722     C      0.953390000000     0.415490000000     0.908040000000    -0.0585274  
C723     C      0.913240000000     0.410990000000     0.851690000000    -0.0536655  
C724     C      0.975300000000     0.435960000000     0.918260000000     0.0935913  
C725     C      0.937580000000     0.473000000000     0.917580000000    -0.00512919 
C726     C      0.878460000000     0.375190000000     0.879520000000    -0.0542921  
C727     C      0.874800000000     0.204070000000     0.824040000000    -0.0326401  
C728     C      0.919460000000     0.086520000000     0.905480000000    -0.0292626  
C729     C      0.977860000000     0.099940000000     0.913300000000    -0.00989134 
C730     C      0.939840000000     0.063910000000     0.914010000000    -0.00920455 
C731     C      0.913290000000     0.127720000000     0.850570000000    -0.0541489  
C732     C      0.881040000000     0.164040000000     0.880450000000    -0.0537685  
C733     C      0.915250000000     0.127030000000     0.877880000000     0.0614469  
C734     C      0.956100000000     0.121260000000     0.905020000000    -0.0287303  
C735     C      0.879150000000     0.164790000000     0.853130000000     0.0606869  
C736     C      0.837520000000     0.170140000000     0.827200000000    -0.0586706  
C737     C      0.895390000000     0.146350000000     0.838220000000    -0.0558808  
C738     C      0.815820000000     0.191260000000     0.817860000000     0.0932811  
C739     C      0.854740000000     0.226660000000     0.814920000000    -0.00503138 
C740     C      0.898890000000     0.145320000000     0.892810000000    -0.0565186  
C741     C      0.701460000000     0.370020000000     0.823370000000    -0.0325195  
C742     C      0.584220000000     0.417450000000     0.903350000000    -0.0288615  
C743     C      0.609810000000     0.465560000000     0.928250000000    -0.00884606 
C744     C      0.571820000000     0.428200000000     0.928880000000    -0.00919246 
C745     C      0.647740000000     0.387670000000     0.889190000000    -0.0544472  
C746     C      0.637190000000     0.399070000000     0.836510000000    -0.0541155  
C747     C      0.628220000000     0.407960000000     0.882510000000     0.0617465  
C748     C      0.619980000000     0.452480000000     0.902810000000    -0.0290741  
C749     C      0.656850000000     0.378910000000     0.843200000000     0.0604548  
C750     C      0.665700000000     0.334910000000     0.822140000000    -0.0622414  
C751     C      0.661980000000     0.373180000000     0.869750000000    -0.0560234  
C752     C      0.677080000000     0.322130000000     0.796770000000     0.0953195  
C753     C      0.714880000000     0.359600000000     0.798190000000    -0.00489395 
C754     C      0.622900000000     0.413520000000     0.855960000000    -0.0568614  
C755     C      0.875460000000     0.340370000000     0.659980000000    -0.0325767  
C756     C      0.914700000000     0.453740000000     0.571300000000    -0.029417   
C757     C      0.972590000000     0.438880000000     0.562260000000    -0.00830478 
C758     C      0.934770000000     0.475480000000     0.560530000000    -0.00828606 
C759     C      0.893710000000     0.397080000000     0.588830000000    -0.0566286  
C760     C      0.895280000000     0.397890000000     0.643510000000    -0.0560729  
C761     C      0.911580000000     0.415600000000     0.601850000000     0.0617804  
C762     C      0.950870000000     0.418710000000     0.572720000000    -0.0292268  
C763     C      0.877410000000     0.379370000000     0.630500000000     0.0611295  
C764     C      0.839180000000     0.375210000000     0.660830000000    -0.0588934  
C765     C      0.876760000000     0.379170000000     0.603130000000    -0.0536377  
C766     C      0.817760000000     0.354700000000     0.671630000000     0.0950566  
C767     C      0.855990000000     0.317970000000     0.670450000000    -0.00476367 
C768     C      0.912190000000     0.415830000000     0.629210000000    -0.0542424  
C769     C      0.972610000000     0.974720000000     0.027910000000     0.395334   
C770     C      0.567190000000     0.566480000000     0.027120000000     0.394833   
C771     C      0.572340000000     0.967210000000     0.019890000000     0.391222   
C772     C      0.967310000000     0.573330000000     0.016840000000     0.394157   
C773     C      0.976570000000     0.564090000000     0.447970000000     0.381703   
C774     C      0.566850000000     0.971600000000     0.453380000000     0.384339   
C775     C      0.974610000000     0.973680000000     0.451070000000     0.386779   
C776     C      0.567150000000     0.564570000000     0.450880000000     0.386928   
C777     C      0.818590000000     0.816230000000     0.203390000000     0.397388   
C778     C      0.726550000000     0.719430000000     0.203070000000     0.396749   
C779     C      0.824820000000     0.715500000000     0.211890000000     0.391523   
C780     C      0.720000000000     0.819840000000     0.209340000000     0.39294    
C781     C      0.722050000000     0.815800000000     0.274790000000     0.391974   
C782     C      0.817010000000     0.725780000000     0.281990000000     0.384916   
C783     C      0.817220000000     0.813480000000     0.279620000000     0.385066   
C784     C      0.725980000000     0.723170000000     0.279390000000     0.384234   
C785     C      0.670230000000     0.697430000000     0.158340000000    -0.0323673  
C786     C      0.624550000000     0.586170000000     0.071610000000    -0.0292915  
C787     C      0.568350000000     0.604600000000     0.059340000000    -0.00820769 
C788     C      0.603470000000     0.565360000000     0.061120000000    -0.00838782 
C789     C      0.628590000000     0.624770000000     0.128230000000    -0.054327   
C790     C      0.667260000000     0.658220000000     0.102380000000    -0.0536287  
C791     C      0.629290000000     0.625050000000     0.100870000000     0.0617326  
C792     C      0.590990000000     0.623650000000     0.070160000000    -0.0294061  
C793     C      0.666510000000     0.658000000000     0.129740000000     0.0610203  
C794     C      0.704170000000     0.660410000000     0.161140000000    -0.058902   
C795     C      0.646990000000     0.641100000000     0.142630000000    -0.055956   
C796     C      0.726470000000     0.679890000000     0.172310000000     0.0950327  
C797     C      0.690750000000     0.718840000000     0.168670000000    -0.0048343  
C798     C      0.648840000000     0.641900000000     0.087970000000    -0.056599   
C799     C      0.625880000000     0.587490000000     0.409520000000    -0.0327206  
C800     C      0.667690000000     0.700830000000     0.321440000000    -0.0293842  
C801     C      0.726390000000     0.688060000000     0.314610000000    -0.00915511 
C802     C      0.687550000000     0.723280000000     0.311530000000    -0.00903897 
C803     C      0.662790000000     0.663150000000     0.378970000000    -0.0542015  
C804     C      0.630740000000     0.624680000000     0.351410000000    -0.0535956  
C805     C      0.664310000000     0.662350000000     0.351640000000     0.061496   
C806     C      0.704960000000     0.667010000000     0.324120000000    -0.0290425  
C807     C      0.629250000000     0.625440000000     0.378750000000     0.0606868  
C808     C      0.588280000000     0.620820000000     0.405770000000    -0.0587099  
C809     C      0.645410000000     0.644910000000     0.392500000000    -0.0559877  
C810     C      0.566800000000     0.599820000000     0.415770000000     0.0935283  
C811     C      0.606240000000     0.564910000000     0.419510000000    -0.00513001 
C812     C      0.648090000000     0.642940000000     0.337880000000    -0.0565922  
C813     C      0.666150000000     0.838920000000     0.160650000000    -0.0325918  
C814     C      0.627210000000     0.948130000000     0.067420000000    -0.0292877  
C815     C      0.580540000000     0.921820000000     0.040910000000    -0.00861273 
C816     C      0.617940000000     0.958860000000     0.040660000000    -0.00864122 
C817     C      0.654680000000     0.886050000000     0.089130000000    -0.0541084  
C818     C      0.638500000000     0.901420000000     0.139590000000    -0.0533602  
C819     C      0.633940000000     0.906110000000     0.092390000000     0.0613971  
C820     C      0.591490000000     0.912670000000     0.067650000000    -0.0293639  
C821     C      0.659170000000     0.881300000000     0.136330000000     0.0605781  
C822     C      0.701310000000     0.874880000000     0.161510000000    -0.0589098  
C823     C      0.667250000000     0.873720000000     0.110840000000    -0.0557299  
C824     C      0.712320000000     0.865300000000     0.188240000000     0.0947433  
C825     C      0.675020000000     0.827750000000     0.187350000000    -0.00527645 
C826     C      0.625950000000     0.913800000000     0.117880000000    -0.0565918  
C827     C      0.949010000000     0.626810000000     0.065390000000    -0.0325062  
C828     C      0.842450000000     0.661900000000     0.163150000000    -0.0292512  
C829     C      0.870280000000     0.706750000000     0.190900000000    -0.00895302 
C830     C      0.832580000000     0.670140000000     0.190520000000    -0.00915557 
C831     C      0.904000000000     0.635200000000     0.138640000000    -0.05403    
C832     C      0.887100000000     0.653750000000     0.089340000000    -0.0535234  
C833     C      0.883780000000     0.655960000000     0.136790000000     0.0613963  
C834     C      0.878560000000     0.697050000000     0.163510000000    -0.0291778  
C835     C      0.907380000000     0.633030000000     0.091190000000     0.0607471  
C836     C      0.912480000000     0.592110000000     0.064310000000    -0.0587688  
C837     C      0.915730000000     0.623760000000     0.116100000000    -0.0559627  
C838     C      0.921400000000     0.581950000000     0.037110000000     0.0944296  
C839     C      0.959380000000     0.618660000000     0.038190000000    -0.0051723  
C840     C      0.875340000000     0.665180000000     0.111890000000    -0.0563884  
C841     C      0.917450000000     0.950770000000     0.407850000000    -0.0325357  
C842     C      0.874330000000     0.835540000000     0.323080000000    -0.0295269  
C843     C      0.816310000000     0.849730000000     0.313830000000    -0.00895128 
C844     C      0.854190000000     0.813350000000     0.313240000000    -0.00860549 
C845     C      0.895460000000     0.893050000000     0.338260000000    -0.0564509  
C846     C      0.896200000000     0.893160000000     0.392950000000    -0.055956   
C847     C      0.877910000000     0.874920000000     0.352150000000     0.0612085  
C848     C      0.837980000000     0.870470000000     0.323620000000    -0.0293422  
C849     C      0.913820000000     0.911230000000     0.379070000000     0.0606186  
C850     C      0.953390000000     0.915490000000     0.408040000000    -0.0585116  
C851     C      0.913240000000     0.910990000000     0.351690000000    -0.0536156  
C852     C      0.975300000000     0.935960000000     0.418260000000     0.0936097  
C853     C      0.937580000000     0.973000000000     0.417580000000    -0.00515168 
C854     C      0.878460000000     0.875190000000     0.379520000000    -0.0542092  
C855     C      0.874800000000     0.704070000000     0.324040000000    -0.0326424  
C856     C      0.919460000000     0.586520000000     0.405480000000    -0.0292818  
C857     C      0.977860000000     0.599940000000     0.413300000000    -0.00986477 
C858     C      0.939840000000     0.563910000000     0.414010000000    -0.00915205 
C859     C      0.913290000000     0.627720000000     0.350570000000    -0.0541376  
C860     C      0.881040000000     0.664040000000     0.380450000000    -0.053723   
C861     C      0.915250000000     0.627030000000     0.377880000000     0.061477   
C862     C      0.956100000000     0.621260000000     0.405020000000    -0.0287477  
C863     C      0.879150000000     0.664790000000     0.353130000000     0.0607021  
C864     C      0.837520000000     0.670140000000     0.327200000000    -0.0586813  
C865     C      0.895390000000     0.646350000000     0.338220000000    -0.0558644  
C866     C      0.815820000000     0.691260000000     0.317860000000     0.0932887  
C867     C      0.854740000000     0.726660000000     0.314920000000    -0.00503718 
C868     C      0.898890000000     0.645320000000     0.392810000000    -0.0564924  
C869     C      0.701460000000     0.870020000000     0.323370000000    -0.0325151  
C870     C      0.584220000000     0.917450000000     0.403350000000    -0.0288751  
C871     C      0.609810000000     0.965550000000     0.428250000000    -0.0087428  
C872     C      0.571820000000     0.928200000000     0.428880000000    -0.00923838 
C873     C      0.647740000000     0.887670000000     0.389190000000    -0.0544187  
C874     C      0.637190000000     0.899070000000     0.336510000000    -0.0540899  
C875     C      0.628220000000     0.907960000000     0.382510000000     0.0617916  
C876     C      0.619980000000     0.952480000000     0.402810000000    -0.029106   
C877     C      0.656850000000     0.878910000000     0.343200000000     0.0604614  
C878     C      0.665700000000     0.834910000000     0.322140000000    -0.0622528  
C879     C      0.661980000000     0.873180000000     0.369750000000    -0.055983   
C880     C      0.677080000000     0.822130000000     0.296770000000     0.0953192  
C881     C      0.714880000000     0.859600000000     0.298190000000    -0.00494199 
C882     C      0.622900000000     0.913520000000     0.355960000000    -0.0568581  
C883     C      0.875460000000     0.840370000000     0.159980000000    -0.0325799  
C884     C      0.914700000000     0.953740000000     0.071300000000    -0.0294174  
C885     C      0.972590000000     0.938880000000     0.062260000000    -0.00830209 
C886     C      0.934770000000     0.975480000000     0.060530000000    -0.00829573 
C887     C      0.893710000000     0.897080000000     0.088840000000    -0.0565468  
C888     C      0.895280000000     0.897890000000     0.143510000000    -0.0560729  
C889     C      0.911580000000     0.915600000000     0.101850000000     0.0617949  
C890     C      0.950870000000     0.918710000000     0.072720000000    -0.0292347  
C891     C      0.877410000000     0.879370000000     0.130500000000     0.0611805  
C892     C      0.839180000000     0.875210000000     0.160830000000    -0.0589307  
C893     C      0.876760000000     0.879170000000     0.103140000000    -0.0536141  
C894     C      0.817760000000     0.854700000000     0.171630000000     0.0950762  
C895     C      0.855990000000     0.817970000000     0.170450000000    -0.00476802 
C896     C      0.912190000000     0.915830000000     0.129210000000    -0.0542134  
C897     C      0.972610000000     0.974720000000     0.527910000000     0.395586   
C898     C      0.567190000000     0.566480000000     0.527120000000     0.395024   
C899     C      0.572340000000     0.967210000000     0.519890000000     0.39141    
C900     C      0.967310000000     0.573330000000     0.516840000000     0.394318   
C901     C      0.976570000000     0.564090000000     0.947970000000     0.381519   
C902     C      0.566850000000     0.971600000000     0.953380000000     0.384148   
C903     C      0.974610000000     0.973680000000     0.951070000000     0.386598   
C904     C      0.567150000000     0.564570000000     0.950880000000     0.386742   
C905     C      0.818590000000     0.816230000000     0.703390000000     0.397391   
C906     C      0.726550000000     0.719430000000     0.703070000000     0.396644   
C907     C      0.824820000000     0.715500000000     0.711890000000     0.391524   
C908     C      0.720000000000     0.819840000000     0.709340000000     0.39294    
C909     C      0.722050000000     0.815800000000     0.774790000000     0.391973   
C910     C      0.817010000000     0.725780000000     0.781990000000     0.384919   
C911     C      0.817220000000     0.813480000000     0.779620000000     0.385067   
C912     C      0.725980000000     0.723170000000     0.779390000000     0.384236   
C913     C      0.670230000000     0.697430000000     0.658340000000    -0.0323546  
C914     C      0.624550000000     0.586170000000     0.571610000000    -0.0292787  
C915     C      0.568350000000     0.604600000000     0.559340000000    -0.00821783 
C916     C      0.603470000000     0.565360000000     0.561120000000    -0.00839962 
C917     C      0.628590000000     0.624770000000     0.628230000000    -0.0543015  
C918     C      0.667260000000     0.658220000000     0.602380000000    -0.0536806  
C919     C      0.629290000000     0.625050000000     0.600870000000     0.0617031  
C920     C      0.590990000000     0.623650000000     0.570160000000    -0.0293945  
C921     C      0.666510000000     0.658000000000     0.629740000000     0.0610332  
C922     C      0.704170000000     0.660410000000     0.661140000000    -0.0589267  
C923     C      0.646990000000     0.641100000000     0.642640000000    -0.0560319  
C924     C      0.726470000000     0.679890000000     0.672310000000     0.0951027  
C925     C      0.690750000000     0.718840000000     0.668660000000    -0.00485824 
C926     C      0.648840000000     0.641900000000     0.587970000000    -0.0566102  
C927     C      0.625880000000     0.587490000000     0.909520000000    -0.0327039  
C928     C      0.667690000000     0.700830000000     0.821440000000    -0.0293858  
C929     C      0.726390000000     0.688060000000     0.814610000000    -0.0091502  
C930     C      0.687550000000     0.723280000000     0.811530000000    -0.00903363 
C931     C      0.662790000000     0.663150000000     0.878970000000    -0.0542389  
C932     C      0.630740000000     0.624680000000     0.851410000000    -0.0535966  
C933     C      0.664310000000     0.662350000000     0.851640000000     0.0614841  
C934     C      0.704960000000     0.667010000000     0.824120000000    -0.0290438  
C935     C      0.629250000000     0.625440000000     0.878750000000     0.0606702  
C936     C      0.588280000000     0.620820000000     0.905770000000    -0.0586964  
C937     C      0.645410000000     0.644910000000     0.892500000000    -0.0560105  
C938     C      0.566800000000     0.599820000000     0.915770000000     0.0935139  
C939     C      0.606240000000     0.564910000000     0.919510000000    -0.0051556  
C940     C      0.648090000000     0.642940000000     0.837880000000    -0.0565954  
C941     C      0.666150000000     0.838920000000     0.660650000000    -0.0325805  
C942     C      0.627210000000     0.948130000000     0.567420000000    -0.0293145  
C943     C      0.580540000000     0.921820000000     0.540910000000    -0.00857065 
C944     C      0.617940000000     0.958860000000     0.540660000000    -0.00860531 
C945     C      0.654680000000     0.886050000000     0.589130000000    -0.0541168  
C946     C      0.638500000000     0.901420000000     0.639600000000    -0.0534529  
C947     C      0.633940000000     0.906110000000     0.592390000000     0.0613483  
C948     C      0.591490000000     0.912670000000     0.567650000000    -0.0293954  
C949     C      0.659170000000     0.881300000000     0.636330000000     0.0606159  
C950     C      0.701310000000     0.874880000000     0.661510000000    -0.0589018  
C951     C      0.667250000000     0.873720000000     0.610840000000    -0.0557828  
C952     C      0.712320000000     0.865300000000     0.688240000000     0.0947389  
C953     C      0.675020000000     0.827750000000     0.687350000000    -0.00528152 
C954     C      0.625950000000     0.913800000000     0.617880000000    -0.0565591  
C955     C      0.949010000000     0.626810000000     0.565390000000    -0.032532   
C956     C      0.842450000000     0.661900000000     0.663150000000    -0.02924    
C957     C      0.870280000000     0.706750000000     0.690900000000    -0.00895302 
C958     C      0.832580000000     0.670140000000     0.690520000000    -0.00915911 
C959     C      0.904000000000     0.635200000000     0.638640000000    -0.0540399  
C960     C      0.887100000000     0.653750000000     0.589340000000    -0.0535423  
C961     C      0.883780000000     0.655960000000     0.636790000000     0.0613978  
C962     C      0.878560000000     0.697050000000     0.663510000000    -0.0291704  
C963     C      0.907380000000     0.633030000000     0.591190000000     0.0607132  
C964     C      0.912480000000     0.592110000000     0.564310000000    -0.0587438  
C965     C      0.915730000000     0.623760000000     0.616100000000    -0.0559556  
C966     C      0.921400000000     0.581950000000     0.537100000000     0.0944606  
C967     C      0.959380000000     0.618660000000     0.538190000000    -0.0051262  
C968     C      0.875340000000     0.665180000000     0.611890000000    -0.0564211  
C969     C      0.917450000000     0.950770000000     0.907850000000    -0.0325193  
C970     C      0.874330000000     0.835540000000     0.823080000000    -0.0295269  
C971     C      0.816310000000     0.849730000000     0.813840000000    -0.00898841 
C972     C      0.854190000000     0.813350000000     0.813240000000    -0.00860146 
C973     C      0.895460000000     0.893050000000     0.838260000000    -0.0564617  
C974     C      0.896200000000     0.893160000000     0.892950000000    -0.0559563  
C975     C      0.877910000000     0.874920000000     0.852150000000     0.0612108  
C976     C      0.837980000000     0.870470000000     0.823620000000    -0.0293246  
C977     C      0.913820000000     0.911230000000     0.879070000000     0.0605936  
C978     C      0.953390000000     0.915490000000     0.908040000000    -0.0585018  
C979     C      0.913240000000     0.910990000000     0.851690000000    -0.0536095  
C980     C      0.975300000000     0.935960000000     0.918260000000     0.0935987  
C981     C      0.937580000000     0.973000000000     0.917580000000    -0.00517993 
C982     C      0.878460000000     0.875190000000     0.879520000000    -0.0542906  
C983     C      0.874800000000     0.704070000000     0.824040000000    -0.032643   
C984     C      0.919460000000     0.586520000000     0.905480000000    -0.0292643  
C985     C      0.977860000000     0.599940000000     0.913300000000    -0.00989508 
C986     C      0.939840000000     0.563910000000     0.914010000000    -0.00917724 
C987     C      0.913290000000     0.627720000000     0.850570000000    -0.0541386  
C988     C      0.881040000000     0.664040000000     0.880450000000    -0.053761   
C989     C      0.915250000000     0.627030000000     0.877880000000     0.0614607  
C990     C      0.956100000000     0.621260000000     0.905020000000    -0.0287271  
C991     C      0.879150000000     0.664790000000     0.853130000000     0.0606895  
C992     C      0.837520000000     0.670140000000     0.827200000000    -0.0586766  
C993     C      0.895390000000     0.646350000000     0.838220000000    -0.0558675  
C994     C      0.815820000000     0.691260000000     0.817860000000     0.0932837  
C995     C      0.854740000000     0.726660000000     0.814920000000    -0.00503142 
C996     C      0.898890000000     0.645320000000     0.892810000000    -0.0565164  
C997     C      0.701460000000     0.870020000000     0.823370000000    -0.0325027  
C998     C      0.584220000000     0.917450000000     0.903350000000    -0.0288955  
C999     C      0.609810000000     0.965550000000     0.928250000000    -0.00872833 
C1000    C      0.571820000000     0.928200000000     0.928880000000    -0.00922328 
C1001    C      0.647740000000     0.887670000000     0.889190000000    -0.0544413  
C1002    C      0.637190000000     0.899070000000     0.836510000000    -0.0540991  
C1003    C      0.628220000000     0.907960000000     0.882510000000     0.061756   
C1004    C      0.619980000000     0.952480000000     0.902810000000    -0.0291202  
C1005    C      0.656850000000     0.878910000000     0.843200000000     0.0604612  
C1006    C      0.665700000000     0.834910000000     0.822140000000    -0.0622421  
C1007    C      0.661980000000     0.873180000000     0.869750000000    -0.0560174  
C1008    C      0.677080000000     0.822130000000     0.796770000000     0.095318   
C1009    C      0.714880000000     0.859600000000     0.798190000000    -0.00494698 
C1010    C      0.622900000000     0.913520000000     0.855960000000    -0.0568506  
C1011    C      0.875460000000     0.840370000000     0.659980000000    -0.0325801  
C1012    C      0.914700000000     0.953740000000     0.571300000000    -0.0294053  
C1013    C      0.972590000000     0.938880000000     0.562260000000    -0.00830743 
C1014    C      0.934770000000     0.975480000000     0.560530000000    -0.00830475 
C1015    C      0.893710000000     0.897080000000     0.588830000000    -0.0566284  
C1016    C      0.895280000000     0.897890000000     0.643510000000    -0.0560569  
C1017    C      0.911580000000     0.915600000000     0.601850000000     0.0617971  
C1018    C      0.950870000000     0.918710000000     0.572720000000    -0.0292232  
C1019    C      0.877410000000     0.879370000000     0.630500000000     0.0611327  
C1020    C      0.839180000000     0.875210000000     0.660830000000    -0.0588978  
C1021    C      0.876760000000     0.879170000000     0.603130000000    -0.0536244  
C1022    C      0.817760000000     0.854700000000     0.671630000000     0.0950644  
C1023    C      0.855990000000     0.817970000000     0.670450000000    -0.0047629  
C1024    C      0.912190000000     0.915830000000     0.629210000000    -0.0542297  
Co1      Co     0.479240000000     0.020320000000     0.989070000000     0.831891   
Co2      Co     0.061060000000     0.519210000000     0.490140000000     0.834735   
Co3      Co     0.519990000000     0.478980000000     0.990650000000     0.831871   
Co4      Co     0.520440000000     0.060750000000     0.489140000000     0.832832   
Co5      Co     0.271400000000     0.308710000000     0.240350000000     0.833818   
Co6      Co     0.272590000000     0.227460000000     0.241280000000     0.833443   
Co7      Co     0.313260000000     0.268410000000     0.239970000000     0.835505   
Co8      Co     0.230940000000     0.267830000000     0.239070000000     0.834932   
Co9      Co     0.479240000000     0.020320000000     0.489070000000     0.833955   
Co10     Co     0.061060000000     0.519210000000     0.990140000000     0.832671   
Co11     Co     0.519990000000     0.478980000000     0.490650000000     0.833857   
Co12     Co     0.520440000000     0.060750000000     0.989140000000     0.830756   
Co13     Co     0.271400000000     0.308710000000     0.740350000000     0.833826   
Co14     Co     0.272590000000     0.227460000000     0.741280000000     0.833448   
Co15     Co     0.313260000000     0.268410000000     0.739970000000     0.835514   
Co16     Co     0.230940000000     0.267830000000     0.739070000000     0.834935   
Co17     Co     0.479240000000     0.520320000000     0.989070000000     0.83272    
Co18     Co     0.061060000000     0.019210000000     0.490140000000     0.833913   
Co19     Co     0.519990000000     0.978980000000     0.990650000000     0.832465   
Co20     Co     0.520440000000     0.560750000000     0.489140000000     0.832752   
Co21     Co     0.271400000000     0.808710000000     0.240350000000     0.833896   
Co22     Co     0.272590000000     0.727460000000     0.241280000000     0.833455   
Co23     Co     0.313260000000     0.768410000000     0.239970000000     0.835495   
Co24     Co     0.230940000000     0.767830000000     0.239070000000     0.834925   
Co25     Co     0.479240000000     0.520320000000     0.489070000000     0.834786   
Co26     Co     0.061060000000     0.019210000000     0.990140000000     0.831851   
Co27     Co     0.519990000000     0.978980000000     0.490650000000     0.834446   
Co28     Co     0.520440000000     0.560750000000     0.989140000000     0.830674   
Co29     Co     0.271400000000     0.808710000000     0.740350000000     0.833904   
Co30     Co     0.272590000000     0.727460000000     0.741280000000     0.833459   
Co31     Co     0.313260000000     0.768410000000     0.739970000000     0.835503   
Co32     Co     0.230940000000     0.767830000000     0.739070000000     0.834928   
Co33     Co     0.979240000000     0.020320000000     0.989070000000     0.832604   
Co34     Co     0.561060000000     0.519210000000     0.490140000000     0.834623   
Co35     Co     0.019990000000     0.478980000000     0.990650000000     0.830843   
Co36     Co     0.020440000000     0.060750000000     0.489140000000     0.831832   
Co37     Co     0.771400000000     0.308710000000     0.240350000000     0.833854   
Co38     Co     0.772600000000     0.227460000000     0.241280000000     0.833432   
Co39     Co     0.813260000000     0.268410000000     0.239970000000     0.83537    
Co40     Co     0.730940000000     0.267830000000     0.239070000000     0.834969   
Co41     Co     0.979240000000     0.020320000000     0.489070000000     0.834663   
Co42     Co     0.561060000000     0.519210000000     0.990140000000     0.832558   
Co43     Co     0.019990000000     0.478980000000     0.490650000000     0.832826   
Co44     Co     0.020440000000     0.060750000000     0.989140000000     0.829758   
Co45     Co     0.771400000000     0.308710000000     0.740350000000     0.833862   
Co46     Co     0.772600000000     0.227460000000     0.741280000000     0.833436   
Co47     Co     0.813260000000     0.268410000000     0.739970000000     0.835379   
Co48     Co     0.730940000000     0.267830000000     0.739070000000     0.834972   
Co49     Co     0.979240000000     0.520320000000     0.989070000000     0.833434   
Co50     Co     0.561060000000     0.019210000000     0.490140000000     0.833798   
Co51     Co     0.019990000000     0.978980000000     0.990650000000     0.831435   
Co52     Co     0.020440000000     0.560750000000     0.489140000000     0.83175    
Co53     Co     0.771400000000     0.808710000000     0.240350000000     0.833932   
Co54     Co     0.772600000000     0.727460000000     0.241280000000     0.833443   
Co55     Co     0.813260000000     0.768410000000     0.239970000000     0.83536    
Co56     Co     0.730940000000     0.767830000000     0.239070000000     0.834962   
Co57     Co     0.979240000000     0.520320000000     0.489070000000     0.835496   
Co58     Co     0.561060000000     0.019210000000     0.990140000000     0.831736   
Co59     Co     0.019990000000     0.978980000000     0.490650000000     0.833414   
Co60     Co     0.020440000000     0.560750000000     0.989140000000     0.829674   
Co61     Co     0.771400000000     0.808710000000     0.740350000000     0.83394    
Co62     Co     0.772600000000     0.727460000000     0.741280000000     0.833448   
Co63     Co     0.813260000000     0.768410000000     0.739970000000     0.835369   
Co64     Co     0.730940000000     0.767830000000     0.739070000000     0.834965   
H1       H      0.149850000000     0.142420000000     0.066840000000     0.0411072  
H2       H      0.155240000000     0.208170000000     0.145230000000     0.0347259  
H3       H      0.214520000000     0.143430000000     0.150100000000     0.0475295  
H4       H      0.054470000000     0.098320000000     0.075680000000     0.0391339  
H5       H      0.199320000000     0.230700000000     0.151870000000     0.0352641  
H6       H      0.139550000000     0.074880000000     0.084300000000     0.0347545  
H7       H      0.080870000000     0.140300000000     0.081820000000     0.034505   
H8       H      0.114600000000     0.050510000000     0.048230000000     0.0462731  
H9       H      0.237390000000     0.168210000000     0.188020000000     0.0254614  
H10      H      0.182090000000     0.171210000000     0.092230000000     0.0440996  
H11      H      0.179110000000     0.233720000000     0.181130000000     0.0450448  
H12      H      0.113700000000     0.111860000000     0.138380000000     0.0444572  
H13      H      0.158410000000     0.188440000000     0.175040000000     0.0383772  
H14      H      0.055630000000     0.116530000000     0.045110000000     0.0448652  
H15      H      0.136250000000     0.095350000000     0.054940000000     0.038471   
H16      H      0.102230000000     0.133530000000     0.053560000000     0.0379978  
H17      H      0.145880000000     0.140680000000     0.163760000000     0.040703   
H18      H      0.192570000000     0.150810000000     0.177660000000     0.0432977  
H19      H      0.094830000000     0.053410000000     0.077830000000     0.0392012  
H20      H      0.237860000000     0.198800000000     0.137400000000     0.090635   
H21      H      0.263710000000     0.197130000000     0.160350000000     0.0935902  
H22      H      0.148880000000     0.141890000000     0.316760000000     0.041055   
H23      H      0.143260000000     0.077330000000     0.398840000000     0.0346828  
H24      H      0.077760000000     0.135690000000     0.392390000000     0.0466375  
H25      H      0.237190000000     0.196790000000     0.331950000000     0.0381564  
H26      H      0.100840000000     0.050950000000     0.402990000000     0.0343945  
H27      H      0.150660000000     0.211050000000     0.332560000000     0.034294   
H28      H      0.215600000000     0.151930000000     0.337190000000     0.035327   
H29      H      0.176250000000     0.236450000000     0.297220000000     0.0466725  
H30      H      0.052250000000     0.111480000000     0.428600000000     0.0275335  
H31      H      0.118360000000     0.109870000000     0.340580000000     0.0436209  
H32      H      0.117530000000     0.052300000000     0.434280000000     0.0447828  
H33      H      0.175150000000     0.177960000000     0.389810000000     0.044367   
H34      H      0.134750000000     0.098830000000     0.426540000000     0.0385248  
H35      H      0.242130000000     0.177040000000     0.302580000000     0.047906   
H36      H      0.158350000000     0.189910000000     0.304390000000     0.0383833  
H37      H      0.196500000000     0.155490000000     0.307020000000     0.0387055  
H38      H      0.144580000000     0.146030000000     0.413610000000     0.0408551  
H39      H      0.096520000000     0.132800000000     0.422690000000     0.0439264  
H40      H      0.193570000000     0.236670000000     0.328290000000     0.0376264  
H41      H      0.063620000000     0.078090000000     0.380770000000     0.08956    
H42      H      0.035550000000     0.075090000000     0.400940000000     0.0889483  
H43      H      0.110050000000     0.429290000000     0.120950000000     0.0408867  
H44      H      0.143590000000     0.334690000000     0.158070000000     0.0347428  
H45      H      0.205080000000     0.397530000000     0.159420000000     0.0480644  
H46      H      0.089100000000     0.407730000000     0.025730000000     0.0402966  
H47      H      0.160470000000     0.335730000000     0.202450000000     0.0378829  
H48      H      0.149890000000     0.452040000000     0.069510000000     0.0349677  
H49      H      0.087500000000     0.390090000000     0.069900000000     0.0346307  
H50      H      0.120530000000     0.481750000000     0.040390000000     0.0459333  
H51      H      0.235370000000     0.366820000000     0.187310000000     0.0264398  
H52      H      0.132090000000     0.407490000000     0.159070000000     0.0438976  
H53      H      0.172920000000     0.304820000000     0.187030000000     0.0449984  
H54      H      0.161070000000     0.379970000000     0.069660000000     0.0447733  
H55      H      0.177670000000     0.327630000000     0.145060000000     0.0372848  
H56      H      0.057570000000     0.419390000000     0.040830000000     0.0456793  
H57      H      0.116200000000     0.459900000000     0.083030000000     0.0378033  
H58      H      0.079850000000     0.423800000000     0.083260000000     0.037589   
H59      H      0.183200000000     0.358270000000     0.107750000000     0.040565   
H60      H      0.213220000000     0.364170000000     0.145810000000     0.0432119  
H61      H      0.131900000000     0.450080000000     0.025460000000     0.0405012  
H62      H      0.181120000000     0.382720000000     0.211040000000     0.0909767  
H63      H      0.212430000000     0.379230000000     0.226500000000     0.0948462  
H64      H      0.359750000000     0.181180000000     0.109920000000     0.0408717  
H65      H      0.453500000000     0.149190000000     0.068460000000     0.0349135  
H66      H      0.389760000000     0.088590000000     0.066670000000     0.0475405  
H67      H      0.384450000000     0.196950000000     0.205350000000     0.0393184  
H68      H      0.450790000000     0.133480000000     0.023650000000     0.0359233  
H69      H      0.338180000000     0.139440000000     0.160310000000     0.0353901  
H70      H      0.401200000000     0.200790000000     0.160910000000     0.0345328  
H71      H      0.309630000000     0.167680000000     0.191360000000     0.0462248  
H72      H      0.419300000000     0.058990000000     0.037320000000     0.0270949  
H73      H      0.380420000000     0.161040000000     0.070330000000     0.0441601  
H74      H      0.482360000000     0.120860000000     0.037860000000     0.0450068  
H75      H      0.410690000000     0.127920000000     0.157650000000     0.0445341  
H76      H      0.460690000000     0.114770000000     0.080360000000     0.0382672  
H77      H      0.373420000000     0.229530000000     0.192050000000     0.0458475  
H78      H      0.330340000000     0.173690000000     0.148300000000     0.0378736  
H79      H      0.367180000000     0.209590000000     0.148700000000     0.0375519  
H80      H      0.431290000000     0.107740000000     0.118110000000     0.0407786  
H81      H      0.423350000000     0.079520000000     0.079420000000     0.0435005  
H82      H      0.341800000000     0.155580000000     0.204960000000     0.0398218  
H83      H      0.403950000000     0.114310000000     0.015860000000     0.0909954  
H84      H      0.407240000000     0.083870000000     0.998990000000     0.0917388  
H85      H      0.365060000000     0.361400000000     0.390470000000     0.0441226  
H86      H      0.401230000000     0.461020000000     0.395720000000     0.0346903  
H87      H      0.463930000000     0.399330000000     0.396080000000     0.0469118  
H88      H      0.304350000000     0.341880000000     0.330900000000     0.0376887  
H89      H      0.444680000000     0.485520000000     0.400600000000     0.0341804  
H90      H      0.390670000000     0.325220000000     0.335010000000     0.0342646  
H91      H      0.327280000000     0.386180000000     0.335950000000     0.0344032  
H92      H      0.365640000000     0.299270000000     0.299840000000     0.0462274  
H93      H      0.488100000000     0.424450000000     0.432770000000     0.0271879  
H94      H      0.396170000000     0.392950000000     0.414110000000     0.0407272  
H95      H      0.426050000000     0.487140000000     0.430870000000     0.0450717  
H96      H      0.395430000000     0.393300000000     0.317100000000     0.041001   
H97      H      0.407040000000     0.440970000000     0.424960000000     0.0386152  
H98      H      0.301530000000     0.360820000000     0.300820000000     0.046077   
H99      H      0.384560000000     0.345580000000     0.306000000000     0.0385098  
H100     H      0.347380000000     0.381310000000     0.306550000000     0.0385339  
H101     H      0.426640000000     0.424780000000     0.340750000000     0.0437707  
H102     H      0.443500000000     0.404960000000     0.425030000000     0.0436337  
H103     H      0.347080000000     0.300820000000     0.330210000000     0.0367987  
H104     H      0.482680000000     0.456030000000     0.382950000000     0.0895496  
H105     H      0.509980000000     0.456520000000     0.404370000000     0.0903946  
H106     H      0.399940000000     0.145130000000     0.413940000000     0.0408367  
H107     H      0.392110000000     0.214100000000     0.334920000000     0.0346869  
H108     H      0.327230000000     0.154900000000     0.340360000000     0.0468359  
H109     H      0.488480000000     0.092310000000     0.395400000000     0.0375824  
H110     H      0.348940000000     0.239670000000     0.331990000000     0.0334045  
H111     H      0.402740000000     0.076710000000     0.393640000000     0.0342295  
H112     H      0.466500000000     0.137340000000     0.392880000000     0.0352168  
H113     H      0.428740000000     0.049230000000     0.427100000000     0.0459201  
H114     H      0.301120000000     0.179790000000     0.305030000000     0.0282557  
H115     H      0.368580000000     0.177990000000     0.392160000000     0.0438227  
H116     H      0.365820000000     0.240230000000     0.300800000000     0.0454505  
H117     H      0.425690000000     0.113720000000     0.338850000000     0.044359   
H118     H      0.383680000000     0.193530000000     0.306570000000     0.0392048  
H119     H      0.493630000000     0.110370000000     0.425730000000     0.0480936  
H120     H      0.409790000000     0.095970000000     0.423130000000     0.0379883  
H121     H      0.447460000000     0.131460000000     0.422770000000     0.0386372  
H122     H      0.394210000000     0.146350000000     0.317090000000     0.0410585  
H123     H      0.345590000000     0.158620000000     0.309920000000     0.0446015  
H124     H      0.446560000000     0.052190000000     0.396400000000     0.0362961  
H125     H      0.312980000000     0.212200000000     0.353350000000     0.0898671  
H126     H      0.284700000000     0.215640000000     0.333440000000     0.0884128  
H127     H      0.107850000000     0.429060000000     0.350330000000     0.0402286  
H128     H      0.205580000000     0.392640000000     0.325070000000     0.0346794  
H129     H      0.142930000000     0.331060000000     0.323320000000     0.0413168  
H130     H      0.124270000000     0.459680000000     0.444280000000     0.042796   
H131     H      0.209050000000     0.373750000000     0.281930000000     0.0376321  
H132     H      0.079970000000     0.394820000000     0.402010000000     0.034895   
H133     H      0.142720000000     0.456250000000     0.401110000000     0.0343895  
H134     H      0.048790000000     0.427420000000     0.427310000000     0.0452012  
H135     H      0.176450000000     0.299210000000     0.299250000000     0.0249143  
H136     H      0.133040000000     0.403620000000     0.316150000000     0.0428286  
H137     H      0.237820000000     0.360830000000     0.300500000000     0.0435146  
H138     H      0.151960000000     0.383180000000     0.409550000000     0.0449236  
H139     H      0.211290000000     0.359510000000     0.340410000000     0.0364163  
H140     H      0.110830000000     0.488480000000     0.426190000000     0.0441865  
H141     H      0.073810000000     0.427790000000     0.386510000000     0.0360783  
H142     H      0.109570000000     0.462740000000     0.385940000000     0.0352202  
H143     H      0.177030000000     0.357650000000     0.375400000000     0.0402482  
H144     H      0.175510000000     0.324390000000     0.339190000000     0.042205   
H145     H      0.077900000000     0.413980000000     0.445000000000     0.0430222  
H146     H      0.139580000000     0.320780000000     0.276850000000     0.0811531  
H147     H      0.158170000000     0.350750000000     0.272010000000     0.0893108  
H148     H      0.425940000000     0.429890000000     0.139440000000     0.0445032  
H149     H      0.391480000000     0.330230000000     0.147550000000     0.0347478  
H150     H      0.328210000000     0.391290000000     0.149110000000     0.0477611  
H151     H      0.484820000000     0.447080000000     0.079000000000     0.0392218  
H152     H      0.348930000000     0.304890000000     0.153850000000     0.0355162  
H153     H      0.398470000000     0.464530000000     0.082990000000     0.0349952  
H154     H      0.461550000000     0.403300000000     0.085420000000     0.0345199  
H155     H      0.423330000000     0.488770000000     0.046410000000     0.0459035  
H156     H      0.305440000000     0.366180000000     0.186540000000     0.0269769  
H157     H      0.396190000000     0.398420000000     0.164640000000     0.0407536  
H158     H      0.367990000000     0.304440000000     0.183940000000     0.0439747  
H159     H      0.392980000000     0.396390000000     0.067700000000     0.0411352  
H160     H      0.386190000000     0.350570000000     0.176700000000     0.0380585  
H161     H      0.487090000000     0.427190000000     0.049440000000     0.0460997  
H162     H      0.404320000000     0.443030000000     0.054670000000     0.0383099  
H163     H      0.441210000000     0.407430000000     0.056040000000     0.0384213  
H164     H      0.363100000000     0.365020000000     0.092910000000     0.0441287  
H165     H      0.349560000000     0.385850000000     0.177500000000     0.0436228  
H166     H      0.441760000000     0.488920000000     0.076910000000     0.0392387  
H167     H      0.309090000000     0.334020000000     0.136920000000     0.0907129  
H168     H      0.282180000000     0.334880000000     0.158790000000     0.0930775  
H169     H      0.149850000000     0.142420000000     0.566840000000     0.0409792  
H170     H      0.155240000000     0.208170000000     0.645230000000     0.0346963  
H171     H      0.214520000000     0.143430000000     0.650100000000     0.0475129  
H172     H      0.054470000000     0.098320000000     0.575680000000     0.0391305  
H173     H      0.199320000000     0.230700000000     0.651870000000     0.0352452  
H174     H      0.139550000000     0.074880000000     0.584300000000     0.0347074  
H175     H      0.080870000000     0.140300000000     0.581820000000     0.0344515  
H176     H      0.114600000000     0.050510000000     0.548230000000     0.0461629  
H177     H      0.237390000000     0.168210000000     0.688020000000     0.025446   
H178     H      0.182090000000     0.171210000000     0.592230000000     0.0440091  
H179     H      0.179110000000     0.233720000000     0.681130000000     0.045046   
H180     H      0.113700000000     0.111860000000     0.638380000000     0.0444591  
H181     H      0.158410000000     0.188440000000     0.675040000000     0.0383778  
H182     H      0.055630000000     0.116530000000     0.545110000000     0.0447376  
H183     H      0.136250000000     0.095350000000     0.554940000000     0.0383293  
H184     H      0.102230000000     0.133530000000     0.553560000000     0.0378525  
H185     H      0.145880000000     0.140680000000     0.663760000000     0.0407521  
H186     H      0.192570000000     0.150810000000     0.677660000000     0.0433073  
H187     H      0.094830000000     0.053410000000     0.577830000000     0.0392022  
H188     H      0.237860000000     0.198800000000     0.637410000000     0.0905961  
H189     H      0.263710000000     0.197130000000     0.660350000000     0.093609   
H190     H      0.148880000000     0.141890000000     0.816760000000     0.0410627  
H191     H      0.143260000000     0.077330000000     0.898840000000     0.0346257  
H192     H      0.077760000000     0.135690000000     0.892390000000     0.0465953  
H193     H      0.237190000000     0.196790000000     0.831950000000     0.0381259  
H194     H      0.100840000000     0.050950000000     0.902990000000     0.0344048  
H195     H      0.150660000000     0.211050000000     0.832560000000     0.0342704  
H196     H      0.215600000000     0.151930000000     0.837190000000     0.0352988  
H197     H      0.176250000000     0.236450000000     0.797220000000     0.046671   
H198     H      0.052250000000     0.111480000000     0.928600000000     0.0274351  
H199     H      0.118360000000     0.109870000000     0.840580000000     0.0436288  
H200     H      0.117530000000     0.052300000000     0.934280000000     0.0446645  
H201     H      0.175150000000     0.177960000000     0.889810000000     0.0442712  
H202     H      0.134750000000     0.098830000000     0.926540000000     0.0383841  
H203     H      0.242130000000     0.177040000000     0.802580000000     0.0479045  
H204     H      0.158350000000     0.189910000000     0.804390000000     0.0383895  
H205     H      0.196500000000     0.155490000000     0.807020000000     0.0387105  
H206     H      0.144580000000     0.146030000000     0.913610000000     0.0407333  
H207     H      0.096520000000     0.132800000000     0.922690000000     0.0437976  
H208     H      0.193570000000     0.236670000000     0.828290000000     0.0375947  
H209     H      0.063620000000     0.078090000000     0.880770000000     0.089575   
H210     H      0.035550000000     0.075090000000     0.900940000000     0.0889732  
H211     H      0.110050000000     0.429290000000     0.620950000000     0.0408832  
H212     H      0.143590000000     0.334690000000     0.658070000000     0.034727   
H213     H      0.205080000000     0.397530000000     0.659420000000     0.0480499  
H214     H      0.089100000000     0.407730000000     0.525730000000     0.0400414  
H215     H      0.160470000000     0.335730000000     0.702450000000     0.0378895  
H216     H      0.149890000000     0.452040000000     0.569510000000     0.0348947  
H217     H      0.087500000000     0.390090000000     0.569900000000     0.0345579  
H218     H      0.120530000000     0.481750000000     0.540390000000     0.0458169  
H219     H      0.235370000000     0.366820000000     0.687310000000     0.0264387  
H220     H      0.132090000000     0.407490000000     0.659070000000     0.0439494  
H221     H      0.172920000000     0.304820000000     0.687030000000     0.0449957  
H222     H      0.161070000000     0.379970000000     0.569660000000     0.0446332  
H223     H      0.177670000000     0.327630000000     0.645060000000     0.0372532  
H224     H      0.057570000000     0.419390000000     0.540840000000     0.045555   
H225     H      0.116200000000     0.459900000000     0.583030000000     0.0378062  
H226     H      0.079850000000     0.423800000000     0.583260000000     0.0375916  
H227     H      0.183200000000     0.358270000000     0.607750000000     0.0405119  
H228     H      0.213220000000     0.364170000000     0.645810000000     0.0431831  
H229     H      0.131900000000     0.450080000000     0.525460000000     0.0402455  
H230     H      0.181120000000     0.382720000000     0.711030000000     0.0910033  
H231     H      0.212430000000     0.379230000000     0.726500000000     0.0948606  
H232     H      0.359750000000     0.181180000000     0.609920000000     0.0408179  
H233     H      0.453500000000     0.149190000000     0.568460000000     0.0348437  
H234     H      0.389760000000     0.088590000000     0.566670000000     0.0474613  
H235     H      0.384450000000     0.196950000000     0.705350000000     0.03933    
H236     H      0.450790000000     0.133480000000     0.523650000000     0.035675   
H237     H      0.338180000000     0.139440000000     0.660310000000     0.0353769  
H238     H      0.401200000000     0.200790000000     0.660910000000     0.0345201  
H239     H      0.309630000000     0.167680000000     0.691360000000     0.0462251  
H240     H      0.419300000000     0.058990000000     0.537320000000     0.0269286  
H241     H      0.380420000000     0.161040000000     0.570330000000     0.0440326  
H242     H      0.482360000000     0.120860000000     0.537870000000     0.0448804  
H243     H      0.410690000000     0.127920000000     0.657650000000     0.0445452  
H244     H      0.460690000000     0.114770000000     0.580360000000     0.0382686  
H245     H      0.373420000000     0.229530000000     0.692040000000     0.0458412  
H246     H      0.330340000000     0.173690000000     0.648300000000     0.0378456  
H247     H      0.367180000000     0.209590000000     0.648700000000     0.0375236  
H248     H      0.431290000000     0.107740000000     0.618110000000     0.0407802  
H249     H      0.423350000000     0.079520000000     0.579420000000     0.0434914  
H250     H      0.341800000000     0.155580000000     0.704960000000     0.0398317  
H251     H      0.403950000000     0.114310000000     0.515860000000     0.0907949  
H252     H      0.407240000000     0.083870000000     0.498990000000     0.0927826  
H253     H      0.365060000000     0.361400000000     0.890460000000     0.044051   
H254     H      0.401230000000     0.461020000000     0.895720000000     0.0346419  
H255     H      0.463930000000     0.399330000000     0.896080000000     0.0468649  
H256     H      0.304350000000     0.341880000000     0.830900000000     0.0376683  
H257     H      0.444680000000     0.485520000000     0.900600000000     0.0341913  
H258     H      0.390670000000     0.325220000000     0.835010000000     0.0342386  
H259     H      0.327280000000     0.386180000000     0.835950000000     0.0343713  
H260     H      0.365640000000     0.299270000000     0.799840000000     0.046227   
H261     H      0.488100000000     0.424450000000     0.932770000000     0.0270795  
H262     H      0.396170000000     0.392950000000     0.914110000000     0.0406011  
H263     H      0.426050000000     0.487140000000     0.930870000000     0.0449731  
H264     H      0.395430000000     0.393300000000     0.817100000000     0.041011   
H265     H      0.407040000000     0.440970000000     0.924960000000     0.038482   
H266     H      0.301530000000     0.360820000000     0.800820000000     0.0460851  
H267     H      0.384560000000     0.345580000000     0.806000000000     0.0385156  
H268     H      0.347380000000     0.381310000000     0.806550000000     0.0385357  
H269     H      0.426640000000     0.424780000000     0.840750000000     0.0437771  
H270     H      0.443500000000     0.404960000000     0.925030000000     0.0435031  
H271     H      0.347080000000     0.300820000000     0.830210000000     0.0367683  
H272     H      0.482680000000     0.456030000000     0.882960000000     0.0896261  
H273     H      0.509980000000     0.456520000000     0.904370000000     0.090423   
H274     H      0.399940000000     0.145130000000     0.913940000000     0.0407116  
H275     H      0.392110000000     0.214100000000     0.834920000000     0.0346619  
H276     H      0.327230000000     0.154900000000     0.840360000000     0.0468053  
H277     H      0.488480000000     0.092310000000     0.895400000000     0.0375994  
H278     H      0.348940000000     0.239670000000     0.831990000000     0.0333765  
H279     H      0.402740000000     0.076710000000     0.893640000000     0.034184   
H280     H      0.466500000000     0.137340000000     0.892880000000     0.0351674  
H281     H      0.428740000000     0.049230000000     0.927100000000     0.0458427  
H282     H      0.301120000000     0.179790000000     0.805030000000     0.0282567  
H283     H      0.368580000000     0.177990000000     0.892160000000     0.0437225  
H284     H      0.365820000000     0.240230000000     0.800800000000     0.0454496  
H285     H      0.425690000000     0.113720000000     0.838850000000     0.0443676  
H286     H      0.383680000000     0.193530000000     0.806570000000     0.0392107  
H287     H      0.493630000000     0.110370000000     0.925730000000     0.0480065  
H288     H      0.409790000000     0.095970000000     0.923130000000     0.0378674  
H289     H      0.447460000000     0.131460000000     0.922770000000     0.0384991  
H290     H      0.394210000000     0.146350000000     0.817090000000     0.0410662  
H291     H      0.345590000000     0.158620000000     0.809920000000     0.0446048  
H292     H      0.446560000000     0.052190000000     0.896400000000     0.0363124  
H293     H      0.312980000000     0.212200000000     0.853350000000     0.0898129  
H294     H      0.284700000000     0.215640000000     0.833440000000     0.0883883  
H295     H      0.107850000000     0.429060000000     0.850330000000     0.0402338  
H296     H      0.205580000000     0.392640000000     0.825070000000     0.0346615  
H297     H      0.142930000000     0.331060000000     0.823320000000     0.0413002  
H298     H      0.124270000000     0.459680000000     0.944280000000     0.042577   
H299     H      0.209050000000     0.373750000000     0.781930000000     0.0376397  
H300     H      0.079970000000     0.394820000000     0.902010000000     0.0348316  
H301     H      0.142720000000     0.456250000000     0.901100000000     0.0343236  
H302     H      0.048790000000     0.427420000000     0.927310000000     0.0451396  
H303     H      0.176450000000     0.299210000000     0.799250000000     0.0249085  
H304     H      0.133040000000     0.403620000000     0.816150000000     0.0428395  
H305     H      0.237820000000     0.360830000000     0.800500000000     0.0435091  
H306     H      0.151960000000     0.383180000000     0.909550000000     0.0447829  
H307     H      0.211290000000     0.359510000000     0.840410000000     0.036379   
H308     H      0.110830000000     0.488480000000     0.926190000000     0.0441292  
H309     H      0.073810000000     0.427790000000     0.886510000000     0.0360883  
H310     H      0.109570000000     0.462740000000     0.885940000000     0.0352279  
H311     H      0.177030000000     0.357650000000     0.875400000000     0.0401835  
H312     H      0.175510000000     0.324390000000     0.839190000000     0.0421697  
H313     H      0.077900000000     0.413980000000     0.945000000000     0.0427996  
H314     H      0.139580000000     0.320780000000     0.776850000000     0.0811569  
H315     H      0.158170000000     0.350750000000     0.772010000000     0.0893193  
H316     H      0.425940000000     0.429890000000     0.639440000000     0.0445151  
H317     H      0.391480000000     0.330230000000     0.647550000000     0.0347227  
H318     H      0.328210000000     0.391290000000     0.649100000000     0.047725   
H319     H      0.484820000000     0.447080000000     0.579000000000     0.0392256  
H320     H      0.348930000000     0.304890000000     0.653850000000     0.0354868  
H321     H      0.398470000000     0.464530000000     0.582990000000     0.0349422  
H322     H      0.461550000000     0.403300000000     0.585420000000     0.0344731  
H323     H      0.423330000000     0.488770000000     0.546410000000     0.0457758  
H324     H      0.305440000000     0.366180000000     0.686540000000     0.0269832  
H325     H      0.396190000000     0.398420000000     0.664640000000     0.0407575  
H326     H      0.367990000000     0.304440000000     0.683940000000     0.043973   
H327     H      0.392980000000     0.396390000000     0.567700000000     0.0410488  
H328     H      0.386190000000     0.350570000000     0.676700000000     0.0380647  
H329     H      0.487090000000     0.427190000000     0.549440000000     0.0459943  
H330     H      0.404320000000     0.443030000000     0.554670000000     0.0381636  
H331     H      0.441210000000     0.407430000000     0.556040000000     0.0382793  
H332     H      0.363100000000     0.365020000000     0.592910000000     0.0440368  
H333     H      0.349560000000     0.385850000000     0.677500000000     0.0436239  
H334     H      0.441760000000     0.488920000000     0.576910000000     0.0392371  
H335     H      0.309090000000     0.334020000000     0.636920000000     0.090665   
H336     H      0.282180000000     0.334880000000     0.658790000000     0.0930582  
H337     H      0.149850000000     0.642420000000     0.066840000000     0.0411191  
H338     H      0.155240000000     0.708170000000     0.145230000000     0.0347397  
H339     H      0.214520000000     0.643420000000     0.150100000000     0.0475368  
H340     H      0.054470000000     0.598320000000     0.075680000000     0.0391761  
H341     H      0.199320000000     0.730700000000     0.151870000000     0.0352592  
H342     H      0.139550000000     0.574880000000     0.084300000000     0.0348235  
H343     H      0.080870000000     0.640300000000     0.081820000000     0.034468   
H344     H      0.114600000000     0.550510000000     0.048230000000     0.046381   
H345     H      0.237390000000     0.668210000000     0.188020000000     0.0254787  
H346     H      0.182090000000     0.671210000000     0.092230000000     0.0441007  
H347     H      0.179110000000     0.733720000000     0.181130000000     0.0450388  
H348     H      0.113700000000     0.611860000000     0.138380000000     0.0445022  
H349     H      0.158410000000     0.688440000000     0.175040000000     0.0383859  
H350     H      0.055630000000     0.616530000000     0.045110000000     0.0448754  
H351     H      0.136250000000     0.595350000000     0.054940000000     0.0384964  
H352     H      0.102230000000     0.633530000000     0.053560000000     0.0379601  
H353     H      0.145880000000     0.640680000000     0.163760000000     0.0407187  
H354     H      0.192570000000     0.650810000000     0.177660000000     0.0433156  
H355     H      0.094830000000     0.553410000000     0.077830000000     0.0393051  
H356     H      0.237860000000     0.698800000000     0.137400000000     0.0906389  
H357     H      0.263710000000     0.697130000000     0.160350000000     0.0935922  
H358     H      0.148880000000     0.641890000000     0.316760000000     0.0410773  
H359     H      0.143260000000     0.577330000000     0.398840000000     0.0347534  
H360     H      0.077760000000     0.635690000000     0.392390000000     0.0466746  
H361     H      0.237190000000     0.696790000000     0.331950000000     0.0381613  
H362     H      0.100840000000     0.550950000000     0.402990000000     0.0345106  
H363     H      0.150660000000     0.711050000000     0.332560000000     0.034294   
H364     H      0.215600000000     0.651930000000     0.337190000000     0.0353545  
H365     H      0.176250000000     0.736450000000     0.297220000000     0.0466665  
H366     H      0.052250000000     0.611480000000     0.428600000000     0.0275286  
H367     H      0.118360000000     0.609870000000     0.340580000000     0.0436671  
H368     H      0.117530000000     0.552310000000     0.434280000000     0.0448958  
H369     H      0.175150000000     0.677960000000     0.389810000000     0.0443972  
H370     H      0.134750000000     0.598830000000     0.426540000000     0.0385533  
H371     H      0.242130000000     0.677040000000     0.302580000000     0.0479156  
H372     H      0.158350000000     0.689910000000     0.304390000000     0.0383887  
H373     H      0.196500000000     0.655490000000     0.307020000000     0.038727   
H374     H      0.144580000000     0.646030000000     0.413610000000     0.0408643  
H375     H      0.096520000000     0.632800000000     0.422690000000     0.0439568  
H376     H      0.193570000000     0.736670000000     0.328290000000     0.0376236  
H377     H      0.063620000000     0.578090000000     0.380770000000     0.0896176  
H378     H      0.035550000000     0.575090000000     0.400940000000     0.0890036  
H379     H      0.110050000000     0.929290000000     0.120950000000     0.0409291  
H380     H      0.143590000000     0.834690000000     0.158070000000     0.034744   
H381     H      0.205080000000     0.897530000000     0.159420000000     0.0481042  
H382     H      0.089100000000     0.907730000000     0.025730000000     0.0402923  
H383     H      0.160470000000     0.835730000000     0.202450000000     0.0378846  
H384     H      0.149890000000     0.952040000000     0.069510000000     0.0350323  
H385     H      0.087500000000     0.890090000000     0.069900000000     0.0346316  
H386     H      0.120530000000     0.981750000000     0.040390000000     0.0460518  
H387     H      0.235370000000     0.866810000000     0.187310000000     0.0264346  
H388     H      0.132090000000     0.907490000000     0.159070000000     0.0439303  
H389     H      0.172920000000     0.804820000000     0.187030000000     0.0449936  
H390     H      0.161070000000     0.879970000000     0.069660000000     0.0447829  
H391     H      0.177670000000     0.827630000000     0.145060000000     0.0372831  
H392     H      0.057570000000     0.919390000000     0.040830000000     0.0456838  
H393     H      0.116200000000     0.959900000000     0.083030000000     0.0378784  
H394     H      0.079850000000     0.923800000000     0.083260000000     0.0376169  
H395     H      0.183200000000     0.858270000000     0.107750000000     0.040569   
H396     H      0.213220000000     0.864170000000     0.145810000000     0.0432265  
H397     H      0.131900000000     0.950080000000     0.025460000000     0.0405403  
H398     H      0.181120000000     0.882720000000     0.211040000000     0.091007   
H399     H      0.212430000000     0.879230000000     0.226500000000     0.0948812  
H400     H      0.359750000000     0.681180000000     0.109920000000     0.0408753  
H401     H      0.453500000000     0.649190000000     0.068460000000     0.0349137  
H402     H      0.389760000000     0.588590000000     0.066670000000     0.0475999  
H403     H      0.384450000000     0.696950000000     0.205350000000     0.0393267  
H404     H      0.450790000000     0.633480000000     0.023650000000     0.0359175  
H405     H      0.338180000000     0.639440000000     0.160310000000     0.035427   
H406     H      0.401200000000     0.700790000000     0.160910000000     0.0345337  
H407     H      0.309630000000     0.667680000000     0.191360000000     0.0462408  
H408     H      0.419300000000     0.558990000000     0.037320000000     0.0271967  
H409     H      0.380420000000     0.661050000000     0.070330000000     0.0441478  
H410     H      0.482360000000     0.620860000000     0.037860000000     0.0450098  
H411     H      0.410690000000     0.627910000000     0.157650000000     0.044558   
H412     H      0.460690000000     0.614770000000     0.080360000000     0.038291   
H413     H      0.373420000000     0.729530000000     0.192050000000     0.0458466  
H414     H      0.330340000000     0.673690000000     0.148300000000     0.0378814  
H415     H      0.367180000000     0.709590000000     0.148700000000     0.0375494  
H416     H      0.431290000000     0.607740000000     0.118110000000     0.0408235  
H417     H      0.423350000000     0.579520000000     0.079420000000     0.0435702  
H418     H      0.341800000000     0.655580000000     0.204960000000     0.039849   
H419     H      0.403950000000     0.614310000000     0.015860000000     0.0910029  
H420     H      0.407240000000     0.583870000000     0.998990000000     0.0917768  
H421     H      0.365060000000     0.861400000000     0.390470000000     0.044129   
H422     H      0.401230000000     0.961020000000     0.395720000000     0.0347614  
H423     H      0.463930000000     0.899330000000     0.396080000000     0.0469045  
H424     H      0.304350000000     0.841880000000     0.330900000000     0.0376925  
H425     H      0.444680000000     0.985510000000     0.400600000000     0.0343198  
H426     H      0.390670000000     0.825220000000     0.335010000000     0.0342606  
H427     H      0.327280000000     0.886180000000     0.335950000000     0.0344343  
H428     H      0.365640000000     0.799280000000     0.299840000000     0.0462389  
H429     H      0.488100000000     0.924450000000     0.432770000000     0.0271854  
H430     H      0.396170000000     0.892950000000     0.414110000000     0.0407344  
H431     H      0.426050000000     0.987140000000     0.430870000000     0.0452035  
H432     H      0.395430000000     0.893300000000     0.317100000000     0.0410291  
H433     H      0.407040000000     0.940970000000     0.424960000000     0.038643   
H434     H      0.301530000000     0.860820000000     0.300820000000     0.0460906  
H435     H      0.384560000000     0.845580000000     0.306000000000     0.0385125  
H436     H      0.347380000000     0.881310000000     0.306550000000     0.0385588  
H437     H      0.426640000000     0.924790000000     0.340750000000     0.04379    
H438     H      0.443500000000     0.904950000000     0.425030000000     0.0436128  
H439     H      0.347080000000     0.800820000000     0.330210000000     0.0368057  
H440     H      0.482680000000     0.956020000000     0.382950000000     0.0896586  
H441     H      0.509980000000     0.956520000000     0.404370000000     0.0904643  
H442     H      0.399940000000     0.645130000000     0.413940000000     0.0408425  
H443     H      0.392110000000     0.714100000000     0.334920000000     0.0346852  
H444     H      0.327230000000     0.654900000000     0.340360000000     0.0468628  
H445     H      0.488480000000     0.592310000000     0.395400000000     0.0376187  
H446     H      0.348940000000     0.739670000000     0.331990000000     0.0334024  
H447     H      0.402740000000     0.576710000000     0.393640000000     0.0343008  
H448     H      0.466500000000     0.637340000000     0.392880000000     0.0352187  
H449     H      0.428740000000     0.549230000000     0.427100000000     0.0460255  
H450     H      0.301120000000     0.679790000000     0.305030000000     0.0282678  
H451     H      0.368580000000     0.677990000000     0.392160000000     0.0438255  
H452     H      0.365820000000     0.740230000000     0.300800000000     0.0454507  
H453     H      0.425690000000     0.613720000000     0.338850000000     0.0444022  
H454     H      0.383680000000     0.693530000000     0.306570000000     0.0392099  
H455     H      0.493630000000     0.610370000000     0.425730000000     0.0480904  
H456     H      0.409790000000     0.595970000000     0.423130000000     0.0380109  
H457     H      0.447460000000     0.631460000000     0.422770000000     0.0386315  
H458     H      0.394210000000     0.646350000000     0.317090000000     0.0410783  
H459     H      0.345590000000     0.658620000000     0.309920000000     0.0446239  
H460     H      0.446560000000     0.552180000000     0.396400000000     0.0363958  
H461     H      0.312980000000     0.712200000000     0.353350000000     0.0898678  
H462     H      0.284700000000     0.715640000000     0.333440000000     0.0884137  
H463     H      0.107850000000     0.929060000000     0.350330000000     0.0402701  
H464     H      0.205580000000     0.892640000000     0.325070000000     0.0347114  
H465     H      0.142930000000     0.831060000000     0.323320000000     0.0413158  
H466     H      0.124270000000     0.959680000000     0.444280000000     0.042811   
H467     H      0.209050000000     0.873740000000     0.281930000000     0.0376751  
H468     H      0.079970000000     0.894830000000     0.402010000000     0.0349145  
H469     H      0.142720000000     0.956250000000     0.401110000000     0.0344674  
H470     H      0.048790000000     0.927420000000     0.427310000000     0.0452167  
H471     H      0.176450000000     0.799210000000     0.299250000000     0.024912   
H472     H      0.133040000000     0.903620000000     0.316150000000     0.0428597  
H473     H      0.237820000000     0.860820000000     0.300500000000     0.043549   
H474     H      0.151960000000     0.883180000000     0.409550000000     0.0449317  
H475     H      0.211290000000     0.859510000000     0.340410000000     0.0364202  
H476     H      0.110830000000     0.988480000000     0.426190000000     0.0442909  
H477     H      0.073810000000     0.927790000000     0.386510000000     0.0361116  
H478     H      0.109570000000     0.962740000000     0.385940000000     0.0353059  
H479     H      0.177030000000     0.857650000000     0.375400000000     0.0402513  
H480     H      0.175510000000     0.824390000000     0.339190000000     0.0422027  
H481     H      0.077900000000     0.913980000000     0.445000000000     0.0430233  
H482     H      0.139580000000     0.820780000000     0.276850000000     0.0811551  
H483     H      0.158170000000     0.850750000000     0.272010000000     0.0893198  
H484     H      0.425940000000     0.929890000000     0.139440000000     0.0445532  
H485     H      0.391480000000     0.830230000000     0.147550000000     0.0347469  
H486     H      0.328210000000     0.891290000000     0.149110000000     0.0477981  
H487     H      0.484820000000     0.947080000000     0.079000000000     0.0392722  
H488     H      0.348930000000     0.804890000000     0.153850000000     0.0355138  
H489     H      0.398470000000     0.964530000000     0.082990000000     0.0350695  
H490     H      0.461550000000     0.903300000000     0.085420000000     0.0345251  
H491     H      0.423330000000     0.988770000000     0.046410000000     0.046018   
H492     H      0.305440000000     0.866180000000     0.186540000000     0.0269945  
H493     H      0.396190000000     0.898420000000     0.164640000000     0.0407776  
H494     H      0.367990000000     0.804440000000     0.183940000000     0.0439738  
H495     H      0.392980000000     0.896400000000     0.067700000000     0.0411469  
H496     H      0.386190000000     0.850570000000     0.176700000000     0.0380654  
H497     H      0.487090000000     0.927190000000     0.049440000000     0.0461052  
H498     H      0.404320000000     0.943030000000     0.054670000000     0.0383354  
H499     H      0.441210000000     0.907430000000     0.056040000000     0.0384196  
H500     H      0.363100000000     0.865020000000     0.092910000000     0.0441347  
H501     H      0.349560000000     0.885850000000     0.177500000000     0.0436487  
H502     H      0.441760000000     0.988920000000     0.076910000000     0.0393611  
H503     H      0.309090000000     0.834020000000     0.136920000000     0.0906572  
H504     H      0.282180000000     0.834880000000     0.158790000000     0.0930252  
H505     H      0.149850000000     0.642420000000     0.566840000000     0.0409912  
H506     H      0.155240000000     0.708170000000     0.645230000000     0.0347101  
H507     H      0.214520000000     0.643420000000     0.650100000000     0.0475203  
H508     H      0.054470000000     0.598320000000     0.575680000000     0.0391727  
H509     H      0.199320000000     0.730700000000     0.651870000000     0.0352403  
H510     H      0.139550000000     0.574880000000     0.584300000000     0.0347765  
H511     H      0.080870000000     0.640300000000     0.581820000000     0.0344145  
H512     H      0.114600000000     0.550510000000     0.548230000000     0.046271   
H513     H      0.237390000000     0.668210000000     0.688020000000     0.0254633  
H514     H      0.182090000000     0.671210000000     0.592230000000     0.0440103  
H515     H      0.179110000000     0.733720000000     0.681130000000     0.04504    
H516     H      0.113700000000     0.611860000000     0.638380000000     0.0445042  
H517     H      0.158410000000     0.688440000000     0.675040000000     0.0383865  
H518     H      0.055630000000     0.616530000000     0.545110000000     0.0447478  
H519     H      0.136250000000     0.595350000000     0.554940000000     0.0383547  
H520     H      0.102230000000     0.633530000000     0.553560000000     0.0378148  
H521     H      0.145880000000     0.640680000000     0.663760000000     0.0407678  
H522     H      0.192570000000     0.650810000000     0.677660000000     0.0433252  
H523     H      0.094830000000     0.553410000000     0.577830000000     0.0393063  
H524     H      0.237860000000     0.698800000000     0.637410000000     0.0906     
H525     H      0.263710000000     0.697130000000     0.660350000000     0.093611   
H526     H      0.148880000000     0.641890000000     0.816760000000     0.041085   
H527     H      0.143260000000     0.577330000000     0.898840000000     0.0346963  
H528     H      0.077760000000     0.635690000000     0.892390000000     0.0466324  
H529     H      0.237190000000     0.696790000000     0.831950000000     0.0381308  
H530     H      0.100840000000     0.550950000000     0.902990000000     0.034521   
H531     H      0.150660000000     0.711050000000     0.832560000000     0.0342703  
H532     H      0.215600000000     0.651930000000     0.837190000000     0.0353264  
H533     H      0.176250000000     0.736450000000     0.797220000000     0.046665   
H534     H      0.052250000000     0.611480000000     0.928600000000     0.0274302  
H535     H      0.118360000000     0.609870000000     0.840580000000     0.043675   
H536     H      0.117530000000     0.552310000000     0.934280000000     0.0447773  
H537     H      0.175150000000     0.677960000000     0.889810000000     0.0443014  
H538     H      0.134750000000     0.598830000000     0.926540000000     0.0384125  
H539     H      0.242130000000     0.677040000000     0.802580000000     0.0479141  
H540     H      0.158350000000     0.689910000000     0.804390000000     0.0383949  
H541     H      0.196500000000     0.655490000000     0.807020000000     0.038732   
H542     H      0.144580000000     0.646030000000     0.913610000000     0.0407426  
H543     H      0.096520000000     0.632800000000     0.922690000000     0.043828   
H544     H      0.193570000000     0.736670000000     0.828290000000     0.0375919  
H545     H      0.063620000000     0.578090000000     0.880770000000     0.0896326  
H546     H      0.035550000000     0.575090000000     0.900940000000     0.0890285  
H547     H      0.110050000000     0.929290000000     0.620950000000     0.0409257  
H548     H      0.143590000000     0.834690000000     0.658070000000     0.0347283  
H549     H      0.205080000000     0.897530000000     0.659420000000     0.0480899  
H550     H      0.089100000000     0.907730000000     0.525730000000     0.0400376  
H551     H      0.160470000000     0.835730000000     0.702450000000     0.0378911  
H552     H      0.149890000000     0.952040000000     0.569510000000     0.0349597  
H553     H      0.087500000000     0.890090000000     0.569900000000     0.0345589  
H554     H      0.120530000000     0.981750000000     0.540390000000     0.0459361  
H555     H      0.235370000000     0.866810000000     0.687310000000     0.0264335  
H556     H      0.132090000000     0.907490000000     0.659070000000     0.043982   
H557     H      0.172920000000     0.804820000000     0.687030000000     0.0449909  
H558     H      0.161070000000     0.879970000000     0.569660000000     0.0446431  
H559     H      0.177670000000     0.827630000000     0.645060000000     0.0372515  
H560     H      0.057570000000     0.919390000000     0.540840000000     0.0455598  
H561     H      0.116200000000     0.959900000000     0.583030000000     0.0378815  
H562     H      0.079850000000     0.923800000000     0.583260000000     0.0376196  
H563     H      0.183200000000     0.858270000000     0.607750000000     0.040516   
H564     H      0.213220000000     0.864170000000     0.645810000000     0.0431977  
H565     H      0.131900000000     0.950080000000     0.525460000000     0.0402852  
H566     H      0.181120000000     0.882720000000     0.711030000000     0.0910336  
H567     H      0.212430000000     0.879230000000     0.726500000000     0.0948956  
H568     H      0.359750000000     0.681180000000     0.609920000000     0.0408215  
H569     H      0.453500000000     0.649190000000     0.568460000000     0.0348438  
H570     H      0.389760000000     0.588590000000     0.566670000000     0.0475207  
H571     H      0.384450000000     0.696950000000     0.705350000000     0.0393383  
H572     H      0.450790000000     0.633480000000     0.523650000000     0.0356692  
H573     H      0.338180000000     0.639440000000     0.660310000000     0.0354138  
H574     H      0.401200000000     0.700790000000     0.660910000000     0.0345211  
H575     H      0.309630000000     0.667680000000     0.691360000000     0.0462412  
H576     H      0.419300000000     0.558990000000     0.537320000000     0.0270304  
H577     H      0.380420000000     0.661050000000     0.570330000000     0.0440205  
H578     H      0.482360000000     0.620860000000     0.537870000000     0.0448835  
H579     H      0.410690000000     0.627910000000     0.657650000000     0.0445692  
H580     H      0.460690000000     0.614770000000     0.580360000000     0.0382925  
H581     H      0.373420000000     0.729530000000     0.692040000000     0.0458403  
H582     H      0.330340000000     0.673690000000     0.648300000000     0.0378534  
H583     H      0.367180000000     0.709590000000     0.648700000000     0.037521   
H584     H      0.431290000000     0.607740000000     0.618110000000     0.0408251  
H585     H      0.423350000000     0.579520000000     0.579420000000     0.0435613  
H586     H      0.341800000000     0.655580000000     0.704960000000     0.039859   
H587     H      0.403950000000     0.614310000000     0.515860000000     0.0908025  
H588     H      0.407240000000     0.583870000000     0.498990000000     0.0928211  
H589     H      0.365060000000     0.861400000000     0.890460000000     0.0440574  
H590     H      0.401230000000     0.961020000000     0.895720000000     0.0347132  
H591     H      0.463930000000     0.899330000000     0.896080000000     0.0468577  
H592     H      0.304350000000     0.841880000000     0.830900000000     0.0376722  
H593     H      0.444680000000     0.985510000000     0.900600000000     0.0343309  
H594     H      0.390670000000     0.825220000000     0.835010000000     0.0342346  
H595     H      0.327280000000     0.886180000000     0.835950000000     0.0344026  
H596     H      0.365640000000     0.799280000000     0.799840000000     0.0462385  
H597     H      0.488100000000     0.924450000000     0.932770000000     0.0270771  
H598     H      0.396170000000     0.892950000000     0.914110000000     0.0406085  
H599     H      0.426050000000     0.987140000000     0.930870000000     0.0451053  
H600     H      0.395430000000     0.893300000000     0.817100000000     0.0410391  
H601     H      0.407040000000     0.940970000000     0.924960000000     0.0385101  
H602     H      0.301530000000     0.860820000000     0.800820000000     0.0460988  
H603     H      0.384560000000     0.845580000000     0.806000000000     0.0385183  
H604     H      0.347380000000     0.881310000000     0.806550000000     0.0385606  
H605     H      0.426640000000     0.924790000000     0.840750000000     0.0437965  
H606     H      0.443500000000     0.904950000000     0.925030000000     0.0434824  
H607     H      0.347080000000     0.800820000000     0.830210000000     0.0367753  
H608     H      0.482680000000     0.956020000000     0.882960000000     0.0897353  
H609     H      0.509980000000     0.956520000000     0.904370000000     0.0904928  
H610     H      0.399940000000     0.645130000000     0.913940000000     0.0407174  
H611     H      0.392110000000     0.714100000000     0.834920000000     0.0346603  
H612     H      0.327230000000     0.654900000000     0.840360000000     0.0468321  
H613     H      0.488480000000     0.592310000000     0.895400000000     0.0376358  
H614     H      0.348940000000     0.739670000000     0.831990000000     0.0333744  
H615     H      0.402740000000     0.576710000000     0.893640000000     0.0342553  
H616     H      0.466500000000     0.637340000000     0.892880000000     0.0351693  
H617     H      0.428740000000     0.549230000000     0.927100000000     0.0459481  
H618     H      0.301120000000     0.679790000000     0.805030000000     0.0282689  
H619     H      0.368580000000     0.677990000000     0.892160000000     0.0437253  
H620     H      0.365820000000     0.740230000000     0.800800000000     0.0454498  
H621     H      0.425690000000     0.613720000000     0.838850000000     0.0444108  
H622     H      0.383680000000     0.693530000000     0.806570000000     0.0392158  
H623     H      0.493630000000     0.610370000000     0.925730000000     0.0480033  
H624     H      0.409790000000     0.595970000000     0.923130000000     0.0378899  
H625     H      0.447460000000     0.631460000000     0.922770000000     0.0384934  
H626     H      0.394210000000     0.646350000000     0.817090000000     0.041086   
H627     H      0.345590000000     0.658620000000     0.809920000000     0.0446272  
H628     H      0.446560000000     0.552180000000     0.896400000000     0.0364122  
H629     H      0.312980000000     0.712200000000     0.853350000000     0.0898136  
H630     H      0.284700000000     0.715640000000     0.833440000000     0.0883892  
H631     H      0.107850000000     0.929060000000     0.850330000000     0.0402754  
H632     H      0.205580000000     0.892640000000     0.825070000000     0.0346936  
H633     H      0.142930000000     0.831060000000     0.823320000000     0.0412993  
H634     H      0.124270000000     0.959680000000     0.944280000000     0.0425925  
H635     H      0.209050000000     0.873740000000     0.781930000000     0.0376827  
H636     H      0.079970000000     0.894830000000     0.902010000000     0.0348512  
H637     H      0.142720000000     0.956250000000     0.901100000000     0.0344018  
H638     H      0.048790000000     0.927420000000     0.927310000000     0.0451552  
H639     H      0.176450000000     0.799210000000     0.799250000000     0.0249062  
H640     H      0.133040000000     0.903620000000     0.816150000000     0.0428706  
H641     H      0.237820000000     0.860820000000     0.800500000000     0.0435436  
H642     H      0.151960000000     0.883180000000     0.909550000000     0.0447912  
H643     H      0.211290000000     0.859510000000     0.840410000000     0.036383   
H644     H      0.110830000000     0.988480000000     0.926190000000     0.044234   
H645     H      0.073810000000     0.927790000000     0.886510000000     0.0361216  
H646     H      0.109570000000     0.962740000000     0.885940000000     0.0353138  
H647     H      0.177030000000     0.857650000000     0.875400000000     0.0401867  
H648     H      0.175510000000     0.824390000000     0.839190000000     0.0421674  
H649     H      0.077900000000     0.913980000000     0.945000000000     0.0428011  
H650     H      0.139580000000     0.820780000000     0.776850000000     0.081159   
H651     H      0.158170000000     0.850750000000     0.772010000000     0.0893283  
H652     H      0.425940000000     0.929890000000     0.639440000000     0.0445652  
H653     H      0.391480000000     0.830230000000     0.647550000000     0.0347219  
H654     H      0.328210000000     0.891290000000     0.649100000000     0.0477622  
H655     H      0.484820000000     0.947080000000     0.579000000000     0.0392761  
H656     H      0.348930000000     0.804890000000     0.653850000000     0.0354844  
H657     H      0.398470000000     0.964530000000     0.582990000000     0.0350169  
H658     H      0.461550000000     0.903300000000     0.585420000000     0.0344784  
H659     H      0.423330000000     0.988770000000     0.546410000000     0.0458909  
H660     H      0.305440000000     0.866180000000     0.686540000000     0.0270008  
H661     H      0.396190000000     0.898420000000     0.664640000000     0.0407816  
H662     H      0.367990000000     0.804440000000     0.683940000000     0.0439722  
H663     H      0.392980000000     0.896400000000     0.567700000000     0.0410608  
H664     H      0.386190000000     0.850570000000     0.676700000000     0.0380716  
H665     H      0.487090000000     0.927190000000     0.549440000000     0.046      
H666     H      0.404320000000     0.943030000000     0.554670000000     0.0381894  
H667     H      0.441210000000     0.907430000000     0.556040000000     0.0382778  
H668     H      0.363100000000     0.865020000000     0.592910000000     0.0440429  
H669     H      0.349560000000     0.885850000000     0.677500000000     0.0436499  
H670     H      0.441760000000     0.988920000000     0.576910000000     0.0393599  
H671     H      0.309090000000     0.834020000000     0.636920000000     0.0906094  
H672     H      0.282180000000     0.834880000000     0.658790000000     0.093006   
H673     H      0.649850000000     0.142420000000     0.066840000000     0.0411194  
H674     H      0.655240000000     0.208170000000     0.145230000000     0.0347595  
H675     H      0.714520000000     0.143430000000     0.150100000000     0.0475281  
H676     H      0.554470000000     0.098320000000     0.075680000000     0.0392623  
H677     H      0.699320000000     0.230700000000     0.151870000000     0.0352684  
H678     H      0.639550000000     0.074880000000     0.084300000000     0.0347586  
H679     H      0.580870000000     0.140300000000     0.081820000000     0.0345835  
H680     H      0.614600000000     0.050510000000     0.048230000000     0.0462783  
H681     H      0.737390000000     0.168210000000     0.188020000000     0.025461   
H682     H      0.682090000000     0.171210000000     0.092230000000     0.0441007  
H683     H      0.679110000000     0.233720000000     0.181130000000     0.0450617  
H684     H      0.613700000000     0.111860000000     0.138380000000     0.0445407  
H685     H      0.658410000000     0.188440000000     0.175040000000     0.0384062  
H686     H      0.555630000000     0.116530000000     0.045110000000     0.0449845  
H687     H      0.636250000000     0.095350000000     0.054940000000     0.0384678  
H688     H      0.602230000000     0.133530000000     0.053560000000     0.0380239  
H689     H      0.645880000000     0.140680000000     0.163760000000     0.040725   
H690     H      0.692570000000     0.150810000000     0.177660000000     0.0433056  
H691     H      0.594830000000     0.053410000000     0.077830000000     0.0392503  
H692     H      0.737860000000     0.198800000000     0.137400000000     0.0906334  
H693     H      0.763710000000     0.197130000000     0.160350000000     0.0935867  
H694     H      0.648880000000     0.141890000000     0.316760000000     0.0410808  
H695     H      0.643260000000     0.077330000000     0.398840000000     0.034684   
H696     H      0.577760000000     0.135690000000     0.392390000000     0.0467246  
H697     H      0.737190000000     0.196790000000     0.331950000000     0.038154   
H698     H      0.600840000000     0.050950000000     0.402990000000     0.0344194  
H699     H      0.650660000000     0.211050000000     0.332560000000     0.0343304  
H700     H      0.715600000000     0.151930000000     0.337190000000     0.0353244  
H701     H      0.676250000000     0.236450000000     0.297220000000     0.0466896  
H702     H      0.552250000000     0.111480000000     0.428600000000     0.0276586  
H703     H      0.618360000000     0.109870000000     0.340580000000     0.0436393  
H704     H      0.617530000000     0.052300000000     0.434280000000     0.0447833  
H705     H      0.675150000000     0.177960000000     0.389810000000     0.0443755  
H706     H      0.634750000000     0.098830000000     0.426540000000     0.038525   
H707     H      0.742130000000     0.177040000000     0.302580000000     0.0479043  
H708     H      0.658350000000     0.189910000000     0.304390000000     0.0384108  
H709     H      0.696500000000     0.155490000000     0.307020000000     0.038711   
H710     H      0.644580000000     0.146030000000     0.413610000000     0.0408634  
H711     H      0.596520000000     0.132800000000     0.422690000000     0.0439648  
H712     H      0.693570000000     0.236670000000     0.328290000000     0.0376315  
H713     H      0.563620000000     0.078090000000     0.380770000000     0.0896298  
H714     H      0.535550000000     0.075090000000     0.400940000000     0.08914    
H715     H      0.610050000000     0.429290000000     0.120950000000     0.040935   
H716     H      0.643590000000     0.334690000000     0.158070000000     0.0347868  
H717     H      0.705080000000     0.397530000000     0.159420000000     0.048064   
H718     H      0.589100000000     0.407730000000     0.025730000000     0.0403387  
H719     H      0.660470000000     0.335730000000     0.202450000000     0.0379093  
H720     H      0.649890000000     0.452040000000     0.069510000000     0.0349675  
H721     H      0.587500000000     0.390090000000     0.069900000000     0.0347036  
H722     H      0.620530000000     0.481750000000     0.040390000000     0.0459378  
H723     H      0.735370000000     0.366820000000     0.187310000000     0.0264402  
H724     H      0.632090000000     0.407490000000     0.159070000000     0.0439366  
H725     H      0.672920000000     0.304820000000     0.187030000000     0.0450177  
H726     H      0.661070000000     0.379970000000     0.069660000000     0.0447815  
H727     H      0.677660000000     0.327630000000     0.145060000000     0.0373021  
H728     H      0.557570000000     0.419390000000     0.040830000000     0.0458093  
H729     H      0.616200000000     0.459900000000     0.083030000000     0.0378315  
H730     H      0.579850000000     0.423800000000     0.083260000000     0.0376709  
H731     H      0.683200000000     0.358270000000     0.107750000000     0.0405682  
H732     H      0.713220000000     0.364170000000     0.145810000000     0.0432103  
H733     H      0.631900000000     0.450080000000     0.025460000000     0.0404975  
H734     H      0.681120000000     0.382720000000     0.211040000000     0.0909914  
H735     H      0.712430000000     0.379230000000     0.226500000000     0.0948451  
H736     H      0.859750000000     0.181180000000     0.109920000000     0.040874   
H737     H      0.953500000000     0.149190000000     0.068460000000     0.0349811  
H738     H      0.889760000000     0.088590000000     0.066670000000     0.0475372  
H739     H      0.884450000000     0.196950000000     0.205350000000     0.0393589  
H740     H      0.950790000000     0.133480000000     0.023650000000     0.0359765  
H741     H      0.838190000000     0.139440000000     0.160310000000     0.0354031  
H742     H      0.901200000000     0.200790000000     0.160910000000     0.034582   
H743     H      0.809630000000     0.167680000000     0.191360000000     0.0462267  
H744     H      0.919300000000     0.058990000000     0.037320000000     0.0271019  
H745     H      0.880430000000     0.161040000000     0.070330000000     0.0441788  
H746     H      0.982360000000     0.120860000000     0.037860000000     0.0451517  
H747     H      0.910690000000     0.127920000000     0.157650000000     0.0445802  
H748     H      0.960690000000     0.114770000000     0.080360000000     0.0383447  
H749     H      0.873420000000     0.229530000000     0.192050000000     0.0458807  
H750     H      0.830340000000     0.173690000000     0.148300000000     0.0378751  
H751     H      0.867180000000     0.209590000000     0.148700000000     0.0375628  
H752     H      0.931290000000     0.107740000000     0.118110000000     0.0408301  
H753     H      0.923360000000     0.079520000000     0.079420000000     0.0435251  
H754     H      0.841800000000     0.155580000000     0.204960000000     0.0398328  
H755     H      0.903950000000     0.114310000000     0.015860000000     0.0910006  
H756     H      0.907240000000     0.083870000000     0.998990000000     0.091738   
H757     H      0.865060000000     0.361400000000     0.390470000000     0.0441268  
H758     H      0.901240000000     0.461020000000     0.395720000000     0.0346702  
H759     H      0.963930000000     0.399330000000     0.396080000000     0.0470052  
H760     H      0.804350000000     0.341880000000     0.330900000000     0.0376873  
H761     H      0.944680000000     0.485520000000     0.400600000000     0.0342387  
H762     H      0.890670000000     0.325220000000     0.335010000000     0.0343137  
H763     H      0.827270000000     0.386180000000     0.335950000000     0.0343864  
H764     H      0.865640000000     0.299270000000     0.299840000000     0.0462453  
H765     H      0.988100000000     0.424450000000     0.432770000000     0.0273477  
H766     H      0.896170000000     0.392950000000     0.414110000000     0.0407445  
H767     H      0.926050000000     0.487140000000     0.430870000000     0.0450817  
H768     H      0.895430000000     0.393300000000     0.317100000000     0.0410259  
H769     H      0.907040000000     0.440970000000     0.424960000000     0.0385797  
H770     H      0.801530000000     0.360820000000     0.300820000000     0.0460774  
H771     H      0.884550000000     0.345580000000     0.306000000000     0.0385612  
H772     H      0.847380000000     0.381310000000     0.306550000000     0.0385354  
H773     H      0.926640000000     0.424780000000     0.340750000000     0.0438311  
H774     H      0.943490000000     0.404960000000     0.425030000000     0.0436697  
H775     H      0.847080000000     0.300820000000     0.330210000000     0.0368024  
H776     H      0.982680000000     0.456030000000     0.382950000000     0.0896304  
H777     H      0.009980000000     0.456520000000     0.404370000000     0.0898728  
H778     H      0.899940000000     0.145130000000     0.413940000000     0.0408511  
H779     H      0.892110000000     0.214100000000     0.334920000000     0.0347303  
H780     H      0.827230000000     0.154900000000     0.340360000000     0.046865   
H781     H      0.988480000000     0.092310000000     0.395400000000     0.0377576  
H782     H      0.848940000000     0.239670000000     0.331990000000     0.0334102  
H783     H      0.902740000000     0.076710000000     0.393640000000     0.0342409  
H784     H      0.966500000000     0.137340000000     0.392880000000     0.0353139  
H785     H      0.928740000000     0.049230000000     0.427100000000     0.0458968  
H786     H      0.801120000000     0.179790000000     0.305030000000     0.0282471  
H787     H      0.868580000000     0.177990000000     0.392160000000     0.0438268  
H788     H      0.865820000000     0.240230000000     0.300800000000     0.0454702  
H789     H      0.925690000000     0.113720000000     0.338850000000     0.0444175  
H790     H      0.883680000000     0.193530000000     0.306570000000     0.039236   
H791     H      0.993630000000     0.110370000000     0.425730000000     0.0482644  
H792     H      0.909790000000     0.095970000000     0.423130000000     0.0379928  
H793     H      0.947460000000     0.131460000000     0.422770000000     0.0386725  
H794     H      0.894200000000     0.146350000000     0.317090000000     0.0410712  
H795     H      0.845590000000     0.158620000000     0.309920000000     0.0446232  
H796     H      0.946560000000     0.052190000000     0.396400000000     0.0363298  
H797     H      0.812980000000     0.212200000000     0.353350000000     0.0898689  
H798     H      0.784700000000     0.215640000000     0.333440000000     0.088411   
H799     H      0.607850000000     0.429060000000     0.350330000000     0.0402703  
H800     H      0.705580000000     0.392640000000     0.325070000000     0.0346782  
H801     H      0.642930000000     0.331060000000     0.323320000000     0.0413556  
H802     H      0.624270000000     0.459680000000     0.444280000000     0.0427896  
H803     H      0.709050000000     0.373750000000     0.281930000000     0.0376341  
H804     H      0.579970000000     0.394820000000     0.402010000000     0.0349605  
H805     H      0.642720000000     0.456250000000     0.401110000000     0.0343904  
H806     H      0.548790000000     0.427420000000     0.427310000000     0.0453382  
H807     H      0.676450000000     0.299210000000     0.299250000000     0.0249237  
H808     H      0.633040000000     0.403620000000     0.316150000000     0.0428653  
H809     H      0.737820000000     0.360830000000     0.300500000000     0.0435122  
H810     H      0.651960000000     0.383180000000     0.409550000000     0.0449284  
H811     H      0.711290000000     0.359510000000     0.340410000000     0.0364134  
H812     H      0.610830000000     0.488480000000     0.426190000000     0.0441936  
H813     H      0.573810000000     0.427790000000     0.386510000000     0.0361418  
H814     H      0.609570000000     0.462740000000     0.385940000000     0.0352531  
H815     H      0.677030000000     0.357650000000     0.375400000000     0.040254   
H816     H      0.675510000000     0.324390000000     0.339190000000     0.0422161  
H817     H      0.577900000000     0.413980000000     0.445000000000     0.0430801  
H818     H      0.639580000000     0.320780000000     0.276850000000     0.0812002  
H819     H      0.658170000000     0.350750000000     0.272010000000     0.0893328  
H820     H      0.925940000000     0.429890000000     0.139440000000     0.0445605  
H821     H      0.891480000000     0.330230000000     0.147550000000     0.0347894  
H822     H      0.828210000000     0.391290000000     0.149110000000     0.0477678  
H823     H      0.984820000000     0.447080000000     0.079000000000     0.0393627  
H824     H      0.848930000000     0.304890000000     0.153850000000     0.0355227  
H825     H      0.898470000000     0.464530000000     0.082990000000     0.0350082  
H826     H      0.961550000000     0.403300000000     0.085420000000     0.0346081  
H827     H      0.923330000000     0.488770000000     0.046410000000     0.0459054  
H828     H      0.805440000000     0.366180000000     0.186540000000     0.0269887  
H829     H      0.896190000000     0.398420000000     0.164640000000     0.0407824  
H830     H      0.867990000000     0.304440000000     0.183940000000     0.043998   
H831     H      0.892980000000     0.396390000000     0.067700000000     0.0411458  
H832     H      0.886190000000     0.350570000000     0.176700000000     0.038092   
H833     H      0.987090000000     0.427190000000     0.049440000000     0.0462389  
H834     H      0.904330000000     0.443030000000     0.054670000000     0.0383277  
H835     H      0.941210000000     0.407430000000     0.056040000000     0.0384541  
H836     H      0.863100000000     0.365020000000     0.092910000000     0.0441346  
H837     H      0.849560000000     0.385850000000     0.177500000000     0.043637   
H838     H      0.941760000000     0.488920000000     0.076910000000     0.039291   
H839     H      0.809090000000     0.334020000000     0.136920000000     0.0907094  
H840     H      0.782180000000     0.334880000000     0.158790000000     0.0930775  
H841     H      0.649850000000     0.142420000000     0.566840000000     0.0409915  
H842     H      0.655240000000     0.208170000000     0.645230000000     0.0347299  
H843     H      0.714520000000     0.143430000000     0.650100000000     0.0475115  
H844     H      0.554470000000     0.098320000000     0.575680000000     0.0392591  
H845     H      0.699320000000     0.230700000000     0.651870000000     0.0352495  
H846     H      0.639550000000     0.074880000000     0.584300000000     0.0347116  
H847     H      0.580870000000     0.140300000000     0.581820000000     0.0345301  
H848     H      0.614600000000     0.050510000000     0.548230000000     0.0461682  
H849     H      0.737390000000     0.168210000000     0.688020000000     0.0254456  
H850     H      0.682090000000     0.171210000000     0.592230000000     0.0440102  
H851     H      0.679110000000     0.233720000000     0.681130000000     0.0450629  
H852     H      0.613700000000     0.111860000000     0.638380000000     0.0445427  
H853     H      0.658410000000     0.188440000000     0.675040000000     0.0384069  
H854     H      0.555630000000     0.116530000000     0.545110000000     0.044857   
H855     H      0.636250000000     0.095350000000     0.554940000000     0.0383262  
H856     H      0.602230000000     0.133530000000     0.553560000000     0.0378785  
H857     H      0.645880000000     0.140680000000     0.663760000000     0.0407742  
H858     H      0.692570000000     0.150810000000     0.677660000000     0.0433152  
H859     H      0.594830000000     0.053410000000     0.577830000000     0.0392513  
H860     H      0.737860000000     0.198800000000     0.637410000000     0.0905945  
H861     H      0.763710000000     0.197130000000     0.660350000000     0.0936055  
H862     H      0.648880000000     0.141890000000     0.816760000000     0.0410885  
H863     H      0.643260000000     0.077330000000     0.898840000000     0.034627   
H864     H      0.577760000000     0.135690000000     0.892390000000     0.0466823  
H865     H      0.737190000000     0.196790000000     0.831950000000     0.0381235  
H866     H      0.600840000000     0.050950000000     0.902990000000     0.0344298  
H867     H      0.650660000000     0.211050000000     0.832560000000     0.0343067  
H868     H      0.715600000000     0.151930000000     0.837190000000     0.0352963  
H869     H      0.676250000000     0.236450000000     0.797220000000     0.0466881  
H870     H      0.552250000000     0.111480000000     0.928600000000     0.0275601  
H871     H      0.618360000000     0.109870000000     0.840580000000     0.0436472  
H872     H      0.617530000000     0.052300000000     0.934280000000     0.0446649  
H873     H      0.675150000000     0.177960000000     0.889810000000     0.0442797  
H874     H      0.634750000000     0.098830000000     0.926540000000     0.0383843  
H875     H      0.742130000000     0.177040000000     0.802580000000     0.0479028  
H876     H      0.658350000000     0.189910000000     0.804390000000     0.0384171  
H877     H      0.696500000000     0.155490000000     0.807020000000     0.038716   
H878     H      0.644580000000     0.146030000000     0.913610000000     0.0407417  
H879     H      0.596520000000     0.132800000000     0.922690000000     0.043836   
H880     H      0.693570000000     0.236670000000     0.828290000000     0.0375998  
H881     H      0.563620000000     0.078090000000     0.880770000000     0.0896448  
H882     H      0.535550000000     0.075090000000     0.900940000000     0.089165   
H883     H      0.610050000000     0.429290000000     0.620950000000     0.0409315  
H884     H      0.643590000000     0.334690000000     0.658070000000     0.0347711  
H885     H      0.705080000000     0.397530000000     0.659420000000     0.0480496  
H886     H      0.589100000000     0.407730000000     0.525730000000     0.0400835  
H887     H      0.660470000000     0.335730000000     0.702450000000     0.0379159  
H888     H      0.649890000000     0.452040000000     0.569510000000     0.0348945  
H889     H      0.587500000000     0.390090000000     0.569900000000     0.0346309  
H890     H      0.620530000000     0.481750000000     0.540390000000     0.0458215  
H891     H      0.735370000000     0.366820000000     0.687310000000     0.026439   
H892     H      0.632090000000     0.407490000000     0.659070000000     0.0439883  
H893     H      0.672920000000     0.304820000000     0.687030000000     0.045015   
H894     H      0.661070000000     0.379970000000     0.569660000000     0.0446415  
H895     H      0.677660000000     0.327630000000     0.645060000000     0.0372705  
H896     H      0.557570000000     0.419390000000     0.540840000000     0.0456852  
H897     H      0.616200000000     0.459900000000     0.583030000000     0.0378345  
H898     H      0.579850000000     0.423800000000     0.583260000000     0.0376737  
H899     H      0.683200000000     0.358270000000     0.607750000000     0.0405152  
H900     H      0.713220000000     0.364170000000     0.645810000000     0.0431815  
H901     H      0.631900000000     0.450080000000     0.525460000000     0.0402418  
H902     H      0.681120000000     0.382720000000     0.711030000000     0.091018   
H903     H      0.712430000000     0.379230000000     0.726500000000     0.0948594  
H904     H      0.859750000000     0.181180000000     0.609920000000     0.0408203  
H905     H      0.953500000000     0.149190000000     0.568460000000     0.0349116  
H906     H      0.889760000000     0.088590000000     0.566670000000     0.0474581  
H907     H      0.884450000000     0.196950000000     0.705350000000     0.0393706  
H908     H      0.950790000000     0.133480000000     0.523650000000     0.0357288  
H909     H      0.838190000000     0.139440000000     0.660310000000     0.0353898  
H910     H      0.901200000000     0.200790000000     0.660910000000     0.0345695  
H911     H      0.809630000000     0.167680000000     0.691360000000     0.046227   
H912     H      0.919300000000     0.058990000000     0.537320000000     0.0269358  
H913     H      0.880430000000     0.161040000000     0.570330000000     0.0440515  
H914     H      0.982360000000     0.120860000000     0.537870000000     0.045026   
H915     H      0.910690000000     0.127920000000     0.657650000000     0.0445914  
H916     H      0.960690000000     0.114770000000     0.580360000000     0.0383464  
H917     H      0.873420000000     0.229530000000     0.692040000000     0.0458744  
H918     H      0.830340000000     0.173690000000     0.648300000000     0.0378471  
H919     H      0.867180000000     0.209590000000     0.648700000000     0.0375345  
H920     H      0.931290000000     0.107740000000     0.618110000000     0.0408319  
H921     H      0.923360000000     0.079520000000     0.579420000000     0.0435162  
H922     H      0.841800000000     0.155580000000     0.704960000000     0.0398428  
H923     H      0.903950000000     0.114310000000     0.515860000000     0.0908006  
H924     H      0.907240000000     0.083870000000     0.498990000000     0.0927801  
H925     H      0.865060000000     0.361400000000     0.890460000000     0.0440552  
H926     H      0.901240000000     0.461020000000     0.895720000000     0.0346218  
H927     H      0.963930000000     0.399330000000     0.896080000000     0.0469586  
H928     H      0.804350000000     0.341880000000     0.830900000000     0.037667   
H929     H      0.944680000000     0.485520000000     0.900600000000     0.0342497  
H930     H      0.890670000000     0.325220000000     0.835010000000     0.0342878  
H931     H      0.827270000000     0.386180000000     0.835950000000     0.0343546  
H932     H      0.865640000000     0.299270000000     0.799840000000     0.046245   
H933     H      0.988100000000     0.424450000000     0.932770000000     0.0272396  
H934     H      0.896170000000     0.392950000000     0.914110000000     0.0406186  
H935     H      0.926050000000     0.487140000000     0.930870000000     0.0449833  
H936     H      0.895430000000     0.393300000000     0.817100000000     0.0410359  
H937     H      0.907040000000     0.440970000000     0.924960000000     0.0384466  
H938     H      0.801530000000     0.360820000000     0.800820000000     0.0460856  
H939     H      0.884550000000     0.345580000000     0.806000000000     0.0385671  
H940     H      0.847380000000     0.381310000000     0.806550000000     0.0385372  
H941     H      0.926640000000     0.424780000000     0.840750000000     0.0438377  
H942     H      0.943490000000     0.404960000000     0.925030000000     0.0435394  
H943     H      0.847080000000     0.300820000000     0.830210000000     0.0367721  
H944     H      0.982680000000     0.456030000000     0.882960000000     0.0897069  
H945     H      0.009980000000     0.456520000000     0.904370000000     0.089901   
H946     H      0.899940000000     0.145130000000     0.913940000000     0.0407262  
H947     H      0.892110000000     0.214100000000     0.834920000000     0.0347055  
H948     H      0.827230000000     0.154900000000     0.840360000000     0.0468344  
H949     H      0.988480000000     0.092310000000     0.895400000000     0.0377748  
H950     H      0.848940000000     0.239670000000     0.831990000000     0.0333822  
H951     H      0.902740000000     0.076710000000     0.893640000000     0.0341955  
H952     H      0.966500000000     0.137340000000     0.892880000000     0.0352647  
H953     H      0.928740000000     0.049230000000     0.927100000000     0.0458196  
H954     H      0.801120000000     0.179790000000     0.805030000000     0.0282482  
H955     H      0.868580000000     0.177990000000     0.892160000000     0.0437267  
H956     H      0.865820000000     0.240230000000     0.800800000000     0.0454693  
H957     H      0.925690000000     0.113720000000     0.838850000000     0.0444262  
H958     H      0.883680000000     0.193530000000     0.806570000000     0.0392419  
H959     H      0.993630000000     0.110370000000     0.925730000000     0.0481777  
H960     H      0.909790000000     0.095970000000     0.923130000000     0.0378721  
H961     H      0.947460000000     0.131460000000     0.922770000000     0.0385347  
H962     H      0.894200000000     0.146350000000     0.817090000000     0.0410789  
H963     H      0.845590000000     0.158620000000     0.809920000000     0.0446265  
H964     H      0.946560000000     0.052190000000     0.896400000000     0.0363462  
H965     H      0.812980000000     0.212200000000     0.853350000000     0.0898147  
H966     H      0.784700000000     0.215640000000     0.833440000000     0.0883864  
H967     H      0.607850000000     0.429060000000     0.850330000000     0.0402755  
H968     H      0.705580000000     0.392640000000     0.825070000000     0.0346604  
H969     H      0.642930000000     0.331060000000     0.823320000000     0.041339   
H970     H      0.624270000000     0.459680000000     0.944280000000     0.0425705  
H971     H      0.709050000000     0.373750000000     0.781930000000     0.0376417  
H972     H      0.579970000000     0.394820000000     0.902010000000     0.0348971  
H973     H      0.642720000000     0.456250000000     0.901100000000     0.0343245  
H974     H      0.548790000000     0.427420000000     0.927310000000     0.0452766  
H975     H      0.676450000000     0.299210000000     0.799250000000     0.0249179  
H976     H      0.633040000000     0.403620000000     0.816150000000     0.0428763  
H977     H      0.737820000000     0.360830000000     0.800500000000     0.0435067  
H978     H      0.651960000000     0.383180000000     0.909550000000     0.0447877  
H979     H      0.711290000000     0.359510000000     0.840410000000     0.0363762  
H980     H      0.610830000000     0.488480000000     0.926190000000     0.0441364  
H981     H      0.573810000000     0.427790000000     0.886510000000     0.0361518  
H982     H      0.609570000000     0.462740000000     0.885940000000     0.0352608  
H983     H      0.677030000000     0.357650000000     0.875400000000     0.0401894  
H984     H      0.675510000000     0.324390000000     0.839190000000     0.0421808  
H985     H      0.577900000000     0.413980000000     0.945000000000     0.0428574  
H986     H      0.639580000000     0.320780000000     0.776850000000     0.0812041  
H987     H      0.658170000000     0.350750000000     0.772010000000     0.0893413  
H988     H      0.925940000000     0.429890000000     0.639440000000     0.0445725  
H989     H      0.891480000000     0.330230000000     0.647550000000     0.0347645  
H990     H      0.828210000000     0.391290000000     0.649100000000     0.0477318  
H991     H      0.984820000000     0.447080000000     0.579000000000     0.0393669  
H992     H      0.848930000000     0.304890000000     0.653850000000     0.0354933  
H993     H      0.898470000000     0.464530000000     0.582990000000     0.0349553  
H994     H      0.961550000000     0.403300000000     0.585420000000     0.0345616  
H995     H      0.923330000000     0.488770000000     0.546410000000     0.0457779  
H996     H      0.805440000000     0.366180000000     0.686540000000     0.0269949  
H997     H      0.896190000000     0.398420000000     0.664640000000     0.0407863  
H998     H      0.867990000000     0.304440000000     0.683940000000     0.0439964  
H999     H      0.892980000000     0.396390000000     0.567700000000     0.0410596  
H1000    H      0.886190000000     0.350570000000     0.676700000000     0.0380983  
H1001    H      0.987090000000     0.427190000000     0.549440000000     0.0461342  
H1002    H      0.904330000000     0.443030000000     0.554670000000     0.0381817  
H1003    H      0.941210000000     0.407430000000     0.556040000000     0.0383125  
H1004    H      0.863100000000     0.365020000000     0.592910000000     0.0440428  
H1005    H      0.849560000000     0.385850000000     0.677500000000     0.0436381  
H1006    H      0.941760000000     0.488920000000     0.576910000000     0.0392896  
H1007    H      0.809090000000     0.334020000000     0.636920000000     0.0906615  
H1008    H      0.782180000000     0.334880000000     0.658790000000     0.0930582  
H1009    H      0.649850000000     0.642420000000     0.066840000000     0.0411314  
H1010    H      0.655240000000     0.708170000000     0.145230000000     0.0347734  
H1011    H      0.714520000000     0.643420000000     0.150100000000     0.0475354  
H1012    H      0.554470000000     0.598320000000     0.075680000000     0.0393048  
H1013    H      0.699320000000     0.730700000000     0.151870000000     0.0352635  
H1014    H      0.639550000000     0.574880000000     0.084300000000     0.0348278  
H1015    H      0.580870000000     0.640300000000     0.081820000000     0.0345467  
H1016    H      0.614600000000     0.550510000000     0.048230000000     0.0463865  
H1017    H      0.737390000000     0.668210000000     0.188020000000     0.0254783  
H1018    H      0.682090000000     0.671210000000     0.092230000000     0.0441018  
H1019    H      0.679110000000     0.733720000000     0.181130000000     0.0450557  
H1020    H      0.613700000000     0.611860000000     0.138380000000     0.044586   
H1021    H      0.658410000000     0.688440000000     0.175040000000     0.038415   
H1022    H      0.555630000000     0.616530000000     0.045110000000     0.044995   
H1023    H      0.636250000000     0.595350000000     0.054940000000     0.0384933  
H1024    H      0.602230000000     0.633530000000     0.053560000000     0.0379862  
H1025    H      0.645880000000     0.640680000000     0.163760000000     0.0407408  
H1026    H      0.692570000000     0.650810000000     0.177660000000     0.0433236  
H1027    H      0.594830000000     0.553410000000     0.077830000000     0.0393546  
H1028    H      0.737860000000     0.698800000000     0.137400000000     0.0906373  
H1029    H      0.763710000000     0.697130000000     0.160350000000     0.0935886  
H1030    H      0.648880000000     0.641890000000     0.316760000000     0.0411031  
H1031    H      0.643260000000     0.577330000000     0.398840000000     0.0347548  
H1032    H      0.577760000000     0.635690000000     0.392390000000     0.0467618  
H1033    H      0.737190000000     0.696790000000     0.331950000000     0.0381589  
H1034    H      0.600840000000     0.550950000000     0.402990000000     0.0345359  
H1035    H      0.650660000000     0.711050000000     0.332560000000     0.0343303  
H1036    H      0.715600000000     0.651930000000     0.337190000000     0.035352   
H1037    H      0.676250000000     0.736450000000     0.297220000000     0.0466836  
H1038    H      0.552250000000     0.611480000000     0.428600000000     0.0276539  
H1039    H      0.618360000000     0.609870000000     0.340580000000     0.0436857  
H1040    H      0.617530000000     0.552310000000     0.434280000000     0.0448965  
H1041    H      0.675150000000     0.677960000000     0.389810000000     0.0444057  
H1042    H      0.634750000000     0.598830000000     0.426540000000     0.0385536  
H1043    H      0.742130000000     0.677040000000     0.302580000000     0.047914   
H1044    H      0.658350000000     0.689910000000     0.304390000000     0.0384163  
H1045    H      0.696500000000     0.655490000000     0.307020000000     0.0387325  
H1046    H      0.644580000000     0.646030000000     0.413610000000     0.0408727  
H1047    H      0.596520000000     0.632800000000     0.422690000000     0.0439952  
H1048    H      0.693570000000     0.736670000000     0.328290000000     0.0376287  
H1049    H      0.563620000000     0.578090000000     0.380770000000     0.0896877  
H1050    H      0.535550000000     0.575090000000     0.400940000000     0.0891958  
H1051    H      0.610050000000     0.929290000000     0.120950000000     0.0409774  
H1052    H      0.643590000000     0.834690000000     0.158070000000     0.0347881  
H1053    H      0.705080000000     0.897530000000     0.159420000000     0.0481038  
H1054    H      0.589100000000     0.907730000000     0.025730000000     0.0403344  
H1055    H      0.660470000000     0.835730000000     0.202450000000     0.0379109  
H1056    H      0.649890000000     0.952040000000     0.069510000000     0.0350322  
H1057    H      0.587500000000     0.890090000000     0.069900000000     0.0347046  
H1058    H      0.620530000000     0.981750000000     0.040390000000     0.0460565  
H1059    H      0.735370000000     0.866810000000     0.187310000000     0.026435   
H1060    H      0.632090000000     0.907490000000     0.159070000000     0.0439692  
H1061    H      0.672920000000     0.804820000000     0.187030000000     0.0450129  
H1062    H      0.661070000000     0.879970000000     0.069660000000     0.0447912  
H1063    H      0.677660000000     0.827630000000     0.145060000000     0.0373003  
H1064    H      0.557570000000     0.919390000000     0.040830000000     0.0458139  
H1065    H      0.616200000000     0.959900000000     0.083030000000     0.0379067  
H1066    H      0.579850000000     0.923800000000     0.083260000000     0.0376989  
H1067    H      0.683200000000     0.858270000000     0.107750000000     0.0405722  
H1068    H      0.713220000000     0.864170000000     0.145810000000     0.0432248  
H1069    H      0.631900000000     0.950080000000     0.025460000000     0.0405366  
H1070    H      0.681120000000     0.882720000000     0.211040000000     0.0910217  
H1071    H      0.712430000000     0.879230000000     0.226500000000     0.09488    
H1072    H      0.859750000000     0.681180000000     0.109920000000     0.0408777  
H1073    H      0.953500000000     0.649190000000     0.068460000000     0.0349813  
H1074    H      0.889760000000     0.588590000000     0.066670000000     0.0475967  
H1075    H      0.884450000000     0.696950000000     0.205350000000     0.0393672  
H1076    H      0.950790000000     0.633480000000     0.023650000000     0.0359708  
H1077    H      0.838190000000     0.639440000000     0.160310000000     0.03544    
H1078    H      0.901200000000     0.700790000000     0.160910000000     0.034583   
H1079    H      0.809630000000     0.667680000000     0.191360000000     0.0462428  
H1080    H      0.919300000000     0.558990000000     0.037320000000     0.0272038  
H1081    H      0.880430000000     0.661050000000     0.070330000000     0.0441665  
H1082    H      0.982360000000     0.620860000000     0.037860000000     0.0451549  
H1083    H      0.910690000000     0.627910000000     0.157650000000     0.0446042  
H1084    H      0.960690000000     0.614770000000     0.080360000000     0.0383687  
H1085    H      0.873420000000     0.729530000000     0.192050000000     0.0458798  
H1086    H      0.830340000000     0.673690000000     0.148300000000     0.0378828  
H1087    H      0.867180000000     0.709590000000     0.148700000000     0.0375602  
H1088    H      0.931290000000     0.607740000000     0.118110000000     0.040875   
H1089    H      0.923360000000     0.579520000000     0.079420000000     0.0435949  
H1090    H      0.841800000000     0.655580000000     0.204960000000     0.03986    
H1091    H      0.903950000000     0.614310000000     0.015860000000     0.0910082  
H1092    H      0.907240000000     0.583870000000     0.998990000000     0.0917761  
H1093    H      0.865060000000     0.861400000000     0.390470000000     0.0441332  
H1094    H      0.901240000000     0.961020000000     0.395720000000     0.0347412  
H1095    H      0.963930000000     0.899330000000     0.396080000000     0.0469979  
H1096    H      0.804350000000     0.841880000000     0.330900000000     0.0376912  
H1097    H      0.944680000000     0.985510000000     0.400600000000     0.034378   
H1098    H      0.890670000000     0.825220000000     0.335010000000     0.0343097  
H1099    H      0.827270000000     0.886180000000     0.335950000000     0.0344175  
H1100    H      0.865640000000     0.799280000000     0.299840000000     0.0462568  
H1101    H      0.988100000000     0.924450000000     0.432770000000     0.0273451  
H1102    H      0.896170000000     0.892950000000     0.414110000000     0.0407517  
H1103    H      0.926050000000     0.987140000000     0.430870000000     0.0452135  
H1104    H      0.895430000000     0.893300000000     0.317100000000     0.041054   
H1105    H      0.907040000000     0.940970000000     0.424960000000     0.0386075  
H1106    H      0.801530000000     0.860820000000     0.300820000000     0.0460911  
H1107    H      0.884550000000     0.845580000000     0.306000000000     0.0385639  
H1108    H      0.847380000000     0.881310000000     0.306550000000     0.0385603  
H1109    H      0.926640000000     0.924790000000     0.340750000000     0.0438504  
H1110    H      0.943490000000     0.904950000000     0.425030000000     0.0436488  
H1111    H      0.847080000000     0.800820000000     0.330210000000     0.0368095  
H1112    H      0.982680000000     0.956020000000     0.382950000000     0.0897393  
H1113    H      0.009980000000     0.956520000000     0.404370000000     0.0899424  
H1114    H      0.899940000000     0.645130000000     0.413940000000     0.0408569  
H1115    H      0.892110000000     0.714100000000     0.334920000000     0.0347287  
H1116    H      0.827230000000     0.654900000000     0.340360000000     0.0468918  
H1117    H      0.988480000000     0.592310000000     0.395400000000     0.0377942  
H1118    H      0.848940000000     0.739670000000     0.331990000000     0.0334081  
H1119    H      0.902740000000     0.576710000000     0.393640000000     0.0343123  
H1120    H      0.966500000000     0.637340000000     0.392880000000     0.0353159  
H1121    H      0.928740000000     0.549230000000     0.427100000000     0.0460023  
H1122    H      0.801120000000     0.679790000000     0.305030000000     0.0282593  
H1123    H      0.868580000000     0.677990000000     0.392160000000     0.0438296  
H1124    H      0.865820000000     0.740230000000     0.300800000000     0.0454704  
H1125    H      0.925690000000     0.613720000000     0.338850000000     0.0444608  
H1126    H      0.883680000000     0.693530000000     0.306570000000     0.0392411  
H1127    H      0.993630000000     0.610370000000     0.425730000000     0.0482614  
H1128    H      0.909790000000     0.595970000000     0.423130000000     0.0380154  
H1129    H      0.947460000000     0.631460000000     0.422770000000     0.0386668  
H1130    H      0.894200000000     0.646350000000     0.317090000000     0.0410911  
H1131    H      0.845590000000     0.658620000000     0.309920000000     0.0446456  
H1132    H      0.946560000000     0.552180000000     0.396400000000     0.0364296  
H1133    H      0.812980000000     0.712200000000     0.353350000000     0.0898696  
H1134    H      0.784700000000     0.715640000000     0.333440000000     0.0884119  
H1135    H      0.607850000000     0.929060000000     0.350330000000     0.0403119  
H1136    H      0.705580000000     0.892640000000     0.325070000000     0.0347103  
H1137    H      0.642930000000     0.831060000000     0.323320000000     0.0413546  
H1138    H      0.624270000000     0.959680000000     0.444280000000     0.0428046  
H1139    H      0.709050000000     0.873740000000     0.281930000000     0.0376771  
H1140    H      0.579970000000     0.894830000000     0.402010000000     0.0349801  
H1141    H      0.642720000000     0.956250000000     0.401110000000     0.0344683  
H1142    H      0.548790000000     0.927420000000     0.427310000000     0.0453537  
H1143    H      0.676450000000     0.799210000000     0.299250000000     0.0249214  
H1144    H      0.633040000000     0.903620000000     0.316150000000     0.0428964  
H1145    H      0.737820000000     0.860820000000     0.300500000000     0.0435466  
H1146    H      0.651960000000     0.883180000000     0.409550000000     0.0449365  
H1147    H      0.711290000000     0.859510000000     0.340410000000     0.0364174  
H1148    H      0.610830000000     0.988480000000     0.426190000000     0.0442982  
H1149    H      0.573810000000     0.927790000000     0.386510000000     0.0361751  
H1150    H      0.609570000000     0.962740000000     0.385940000000     0.0353389  
H1151    H      0.677030000000     0.857650000000     0.375400000000     0.0402571  
H1152    H      0.675510000000     0.824390000000     0.339190000000     0.0422139  
H1153    H      0.577900000000     0.913980000000     0.445000000000     0.0430812  
H1154    H      0.639580000000     0.820780000000     0.276850000000     0.0812023  
H1155    H      0.658170000000     0.850750000000     0.272010000000     0.0893418  
H1156    H      0.925940000000     0.929890000000     0.139440000000     0.0446105  
H1157    H      0.891480000000     0.830230000000     0.147550000000     0.0347886  
H1158    H      0.828210000000     0.891290000000     0.149110000000     0.0478048  
H1159    H      0.984820000000     0.947080000000     0.079000000000     0.039413   
H1160    H      0.848930000000     0.804890000000     0.153850000000     0.0355203  
H1161    H      0.898470000000     0.964530000000     0.082990000000     0.0350825  
H1162    H      0.961550000000     0.903300000000     0.085420000000     0.0346132  
H1163    H      0.923330000000     0.988770000000     0.046410000000     0.0460199  
H1164    H      0.805440000000     0.866180000000     0.186540000000     0.0270063  
H1165    H      0.896190000000     0.898420000000     0.164640000000     0.0408064  
H1166    H      0.867990000000     0.804440000000     0.183940000000     0.0439972  
H1167    H      0.892980000000     0.896400000000     0.067700000000     0.0411574  
H1168    H      0.886190000000     0.850570000000     0.176700000000     0.0380989  
H1169    H      0.987090000000     0.927190000000     0.049440000000     0.0462443  
H1170    H      0.904330000000     0.943030000000     0.054670000000     0.0383532  
H1171    H      0.941210000000     0.907430000000     0.056040000000     0.0384524  
H1172    H      0.863100000000     0.865020000000     0.092910000000     0.0441406  
H1173    H      0.849560000000     0.885850000000     0.177500000000     0.0436629  
H1174    H      0.941760000000     0.988920000000     0.076910000000     0.0394133  
H1175    H      0.809090000000     0.834020000000     0.136920000000     0.0906538  
H1176    H      0.782180000000     0.834880000000     0.158790000000     0.0930252  
H1177    H      0.649850000000     0.642420000000     0.566840000000     0.0410035  
H1178    H      0.655240000000     0.708170000000     0.645230000000     0.0347438  
H1179    H      0.714520000000     0.643420000000     0.650100000000     0.0475189  
H1180    H      0.554470000000     0.598320000000     0.575680000000     0.0393016  
H1181    H      0.699320000000     0.730700000000     0.651870000000     0.0352445  
H1182    H      0.639550000000     0.574880000000     0.584300000000     0.0347809  
H1183    H      0.580870000000     0.640300000000     0.581820000000     0.0344933  
H1184    H      0.614600000000     0.550510000000     0.548230000000     0.0462765  
H1185    H      0.737390000000     0.668210000000     0.688020000000     0.0254629  
H1186    H      0.682090000000     0.671210000000     0.592230000000     0.0440114  
H1187    H      0.679110000000     0.733720000000     0.681130000000     0.0450569  
H1188    H      0.613700000000     0.611860000000     0.638380000000     0.044588   
H1189    H      0.658410000000     0.688440000000     0.675040000000     0.0384156  
H1190    H      0.555630000000     0.616530000000     0.545110000000     0.0448675  
H1191    H      0.636250000000     0.595350000000     0.554940000000     0.0383516  
H1192    H      0.602230000000     0.633530000000     0.553560000000     0.0378408  
H1193    H      0.645880000000     0.640680000000     0.663760000000     0.04079    
H1194    H      0.692570000000     0.650810000000     0.677660000000     0.0433331  
H1195    H      0.594830000000     0.553410000000     0.577830000000     0.0393558  
H1196    H      0.737860000000     0.698800000000     0.637410000000     0.0905984  
H1197    H      0.763710000000     0.697130000000     0.660350000000     0.0936075  
H1198    H      0.648880000000     0.641890000000     0.816760000000     0.0411108  
H1199    H      0.643260000000     0.577330000000     0.898840000000     0.0346977  
H1200    H      0.577760000000     0.635690000000     0.892390000000     0.0467195  
H1201    H      0.737190000000     0.696790000000     0.831950000000     0.0381284  
H1202    H      0.600840000000     0.550950000000     0.902990000000     0.0345463  
H1203    H      0.650660000000     0.711050000000     0.832560000000     0.0343067  
H1204    H      0.715600000000     0.651930000000     0.837190000000     0.0353238  
H1205    H      0.676250000000     0.736450000000     0.797220000000     0.0466821  
H1206    H      0.552250000000     0.611480000000     0.928600000000     0.0275555  
H1207    H      0.618360000000     0.609870000000     0.840580000000     0.0436936  
H1208    H      0.617530000000     0.552310000000     0.934280000000     0.0447781  
H1209    H      0.675150000000     0.677960000000     0.889810000000     0.0443099  
H1210    H      0.634750000000     0.598830000000     0.926540000000     0.0384128  
H1211    H      0.742130000000     0.677040000000     0.802580000000     0.0479125  
H1212    H      0.658350000000     0.689910000000     0.804390000000     0.0384225  
H1213    H      0.696500000000     0.655490000000     0.807020000000     0.0387375  
H1214    H      0.644580000000     0.646030000000     0.913610000000     0.0407509  
H1215    H      0.596520000000     0.632800000000     0.922690000000     0.0438664  
H1216    H      0.693570000000     0.736670000000     0.828290000000     0.0375971  
H1217    H      0.563620000000     0.578090000000     0.880770000000     0.0897027  
H1218    H      0.535550000000     0.575090000000     0.900940000000     0.0892209  
H1219    H      0.610050000000     0.929290000000     0.620950000000     0.0409741  
H1220    H      0.643590000000     0.834690000000     0.658070000000     0.0347724  
H1221    H      0.705080000000     0.897530000000     0.659420000000     0.0480895  
H1222    H      0.589100000000     0.907730000000     0.525730000000     0.0400797  
H1223    H      0.660470000000     0.835730000000     0.702450000000     0.0379175  
H1224    H      0.649890000000     0.952040000000     0.569510000000     0.0349596  
H1225    H      0.587500000000     0.890090000000     0.569900000000     0.0346319  
H1226    H      0.620530000000     0.981750000000     0.540390000000     0.0459408  
H1227    H      0.735370000000     0.866810000000     0.687310000000     0.0264339  
H1228    H      0.632090000000     0.907490000000     0.659070000000     0.044021   
H1229    H      0.672920000000     0.804820000000     0.687030000000     0.0450102  
H1230    H      0.661070000000     0.879970000000     0.569660000000     0.0446515  
H1231    H      0.677660000000     0.827630000000     0.645060000000     0.0372688  
H1232    H      0.557570000000     0.919390000000     0.540840000000     0.04569    
H1233    H      0.616200000000     0.959900000000     0.583030000000     0.0379099  
H1234    H      0.579850000000     0.923800000000     0.583260000000     0.0377017  
H1235    H      0.683200000000     0.858270000000     0.607750000000     0.0405193  
H1236    H      0.713220000000     0.864170000000     0.645810000000     0.0431961  
H1237    H      0.631900000000     0.950080000000     0.525460000000     0.0402815  
H1238    H      0.681120000000     0.882720000000     0.711030000000     0.0910483  
H1239    H      0.712430000000     0.879230000000     0.726500000000     0.0948944  
H1240    H      0.859750000000     0.681180000000     0.609920000000     0.040824   
H1241    H      0.953500000000     0.649190000000     0.568460000000     0.0349118  
H1242    H      0.889760000000     0.588590000000     0.566670000000     0.0475176  
H1243    H      0.884450000000     0.696950000000     0.705350000000     0.0393789  
H1244    H      0.950790000000     0.633480000000     0.523650000000     0.0357231  
H1245    H      0.838190000000     0.639440000000     0.660310000000     0.0354267  
H1246    H      0.901200000000     0.700790000000     0.660910000000     0.0345705  
H1247    H      0.809630000000     0.667680000000     0.691360000000     0.0462431  
H1248    H      0.919300000000     0.558990000000     0.537320000000     0.0270378  
H1249    H      0.880430000000     0.661050000000     0.570330000000     0.0440394  
H1250    H      0.982360000000     0.620860000000     0.537870000000     0.0450293  
H1251    H      0.910690000000     0.627910000000     0.657650000000     0.0446154  
H1252    H      0.960690000000     0.614770000000     0.580360000000     0.0383703  
H1253    H      0.873420000000     0.729530000000     0.692040000000     0.0458735  
H1254    H      0.830340000000     0.673690000000     0.648300000000     0.0378548  
H1255    H      0.867180000000     0.709590000000     0.648700000000     0.037532   
H1256    H      0.931290000000     0.607740000000     0.618110000000     0.0408768  
H1257    H      0.923360000000     0.579520000000     0.579420000000     0.0435861  
H1258    H      0.841800000000     0.655580000000     0.704960000000     0.03987    
H1259    H      0.903950000000     0.614310000000     0.515860000000     0.0908081  
H1260    H      0.907240000000     0.583870000000     0.498990000000     0.0928187  
H1261    H      0.865060000000     0.861400000000     0.890460000000     0.0440617  
H1262    H      0.901240000000     0.961020000000     0.895720000000     0.0346931  
H1263    H      0.963930000000     0.899330000000     0.896080000000     0.0469514  
H1264    H      0.804350000000     0.841880000000     0.830900000000     0.0376709  
H1265    H      0.944680000000     0.985510000000     0.900600000000     0.0343892  
H1266    H      0.890670000000     0.825220000000     0.835010000000     0.0342838  
H1267    H      0.827270000000     0.886180000000     0.835950000000     0.0343858  
H1268    H      0.865640000000     0.799280000000     0.799840000000     0.0462565  
H1269    H      0.988100000000     0.924450000000     0.932770000000     0.0272372  
H1270    H      0.896170000000     0.892950000000     0.914110000000     0.040626   
H1271    H      0.926050000000     0.987140000000     0.930870000000     0.0451155  
H1272    H      0.895430000000     0.893300000000     0.817100000000     0.041064   
H1273    H      0.907040000000     0.940970000000     0.924960000000     0.0384747  
H1274    H      0.801530000000     0.860820000000     0.800820000000     0.0460993  
H1275    H      0.884550000000     0.845580000000     0.806000000000     0.0385698  
H1276    H      0.847380000000     0.881310000000     0.806550000000     0.0385621  
H1277    H      0.926640000000     0.924790000000     0.840750000000     0.043857   
H1278    H      0.943490000000     0.904950000000     0.925030000000     0.0435187  
H1279    H      0.847080000000     0.800820000000     0.830210000000     0.0367791  
H1280    H      0.982680000000     0.956020000000     0.882960000000     0.0898159  
H1281    H      0.009980000000     0.956520000000     0.904370000000     0.0899707  
H1282    H      0.899940000000     0.645130000000     0.913940000000     0.0407321  
H1283    H      0.892110000000     0.714100000000     0.834920000000     0.0347038  
H1284    H      0.827230000000     0.654900000000     0.840360000000     0.0468612  
H1285    H      0.988480000000     0.592310000000     0.895400000000     0.0378114  
H1286    H      0.848940000000     0.739670000000     0.831990000000     0.0333802  
H1287    H      0.902740000000     0.576710000000     0.893640000000     0.0342668  
H1288    H      0.966500000000     0.637340000000     0.892880000000     0.0352667  
H1289    H      0.928740000000     0.549230000000     0.927100000000     0.045925   
H1290    H      0.801120000000     0.679790000000     0.805030000000     0.0282603  
H1291    H      0.868580000000     0.677990000000     0.892160000000     0.0437295  
H1292    H      0.865820000000     0.740230000000     0.800800000000     0.0454695  
H1293    H      0.925690000000     0.613720000000     0.838850000000     0.0444695  
H1294    H      0.883680000000     0.693530000000     0.806570000000     0.0392471  
H1295    H      0.993630000000     0.610370000000     0.925730000000     0.0481747  
H1296    H      0.909790000000     0.595970000000     0.923130000000     0.0378946  
H1297    H      0.947460000000     0.631460000000     0.922770000000     0.038529   
H1298    H      0.894200000000     0.646350000000     0.817090000000     0.0410988  
H1299    H      0.845590000000     0.658620000000     0.809920000000     0.0446489  
H1300    H      0.946560000000     0.552180000000     0.896400000000     0.036446   
H1301    H      0.812980000000     0.712200000000     0.853350000000     0.0898154  
H1302    H      0.784700000000     0.715640000000     0.833440000000     0.0883873  
H1303    H      0.607850000000     0.929060000000     0.850330000000     0.0403172  
H1304    H      0.705580000000     0.892640000000     0.825070000000     0.0346925  
H1305    H      0.642930000000     0.831060000000     0.823320000000     0.0413381  
H1306    H      0.624270000000     0.959680000000     0.944280000000     0.0425861  
H1307    H      0.709050000000     0.873740000000     0.781930000000     0.0376848  
H1308    H      0.579970000000     0.894830000000     0.902010000000     0.0349168  
H1309    H      0.642720000000     0.956250000000     0.901100000000     0.0344027  
H1310    H      0.548790000000     0.927420000000     0.927310000000     0.0452922  
H1311    H      0.676450000000     0.799210000000     0.799250000000     0.0249156  
H1312    H      0.633040000000     0.903620000000     0.816150000000     0.0429074  
H1313    H      0.737820000000     0.860820000000     0.800500000000     0.0435411  
H1314    H      0.651960000000     0.883180000000     0.909550000000     0.044796   
H1315    H      0.711290000000     0.859510000000     0.840410000000     0.0363801  
H1316    H      0.610830000000     0.988480000000     0.926190000000     0.0442413  
H1317    H      0.573810000000     0.927790000000     0.886510000000     0.0361852  
H1318    H      0.609570000000     0.962740000000     0.885940000000     0.0353468  
H1319    H      0.677030000000     0.857650000000     0.875400000000     0.0401925  
H1320    H      0.675510000000     0.824390000000     0.839190000000     0.0421786  
H1321    H      0.577900000000     0.913980000000     0.945000000000     0.0428589  
H1322    H      0.639580000000     0.820780000000     0.776850000000     0.0812062  
H1323    H      0.658170000000     0.850750000000     0.772010000000     0.0893504  
H1324    H      0.925940000000     0.929890000000     0.639440000000     0.0446226  
H1325    H      0.891480000000     0.830230000000     0.647550000000     0.0347637  
H1326    H      0.828210000000     0.891290000000     0.649100000000     0.0477689  
H1327    H      0.984820000000     0.947080000000     0.579000000000     0.0394173  
H1328    H      0.848930000000     0.804890000000     0.653850000000     0.035491   
H1329    H      0.898470000000     0.964530000000     0.582990000000     0.0350299  
H1330    H      0.961550000000     0.903300000000     0.585420000000     0.0345669  
H1331    H      0.923330000000     0.988770000000     0.546410000000     0.0458931  
H1332    H      0.805440000000     0.866180000000     0.686540000000     0.0270126  
H1333    H      0.896190000000     0.898420000000     0.664640000000     0.0408104  
H1334    H      0.867990000000     0.804440000000     0.683940000000     0.0439956  
H1335    H      0.892980000000     0.896400000000     0.567700000000     0.0410716  
H1336    H      0.886190000000     0.850570000000     0.676700000000     0.0381052  
H1337    H      0.987090000000     0.927190000000     0.549440000000     0.0461398  
H1338    H      0.904330000000     0.943030000000     0.554670000000     0.0382075  
H1339    H      0.941210000000     0.907430000000     0.556040000000     0.038311   
H1340    H      0.863100000000     0.865020000000     0.592910000000     0.044049   
H1341    H      0.849560000000     0.885850000000     0.677500000000     0.0436641  
H1342    H      0.941760000000     0.988920000000     0.576910000000     0.0394122  
H1343    H      0.809090000000     0.834020000000     0.636920000000     0.090606   
H1344    H      0.782180000000     0.834880000000     0.658790000000     0.093006   
N1       N      0.213990000000     0.205630000000     0.182890000000    -0.178861   
N2       N      0.185260000000     0.175840000000     0.143870000000    -0.10986    
N3       N      0.110110000000     0.107670000000     0.086740000000    -0.113887   
N4       N      0.080350000000     0.079400000000     0.047470000000    -0.165048   
N5       N      0.246870000000     0.186650000000     0.152050000000    -0.196131   
N6       N      0.080390000000     0.076930000000     0.430220000000    -0.176821   
N7       N      0.110850000000     0.106410000000     0.391970000000    -0.110183   
N8       N      0.182730000000     0.181360000000     0.338450000000    -0.114065   
N9       N      0.212940000000     0.210970000000     0.300230000000    -0.163473   
N10      N      0.050730000000     0.088640000000     0.393870000000    -0.196101   
N11      N      0.203530000000     0.336560000000     0.194210000000    -0.177466   
N12      N      0.171460000000     0.368870000000     0.159280000000    -0.109789   
N13      N      0.121450000000     0.418300000000     0.069430000000    -0.113716   
N14      N      0.089110000000     0.450460000000     0.034690000000    -0.163601   
N15      N      0.202670000000     0.384090000000     0.208810000000    -0.195343   
N16      N      0.450330000000     0.090360000000     0.031150000000    -0.177548   
N17      N      0.418960000000     0.121700000000     0.067430000000    -0.109844   
N18      N      0.372370000000     0.167390000000     0.160570000000    -0.113938   
N19      N      0.341460000000     0.198580000000     0.197150000000    -0.164432   
N20      N      0.402520000000     0.092740000000     0.017110000000    -0.194782   
N21      N      0.462100000000     0.460540000000     0.430420000000    -0.176682   
N22      N      0.432490000000     0.430080000000     0.392210000000    -0.109962   
N23      N      0.359310000000     0.356000000000     0.339030000000    -0.114054   
N24      N      0.329670000000     0.326000000000     0.300630000000    -0.163342   
N25      N      0.493650000000     0.444610000000     0.396940000000    -0.195987   
N26      N      0.329290000000     0.214390000000     0.303650000000    -0.176022   
N27      N      0.360270000000     0.184230000000     0.341090000000    -0.110179   
N28      N      0.434090000000     0.107530000000     0.389840000000    -0.11426    
N29      N      0.464590000000     0.076190000000     0.426530000000    -0.163383   
N30      N      0.299990000000     0.201980000000     0.340110000000    -0.195883   
N31      N      0.205910000000     0.331200000000     0.291340000000    -0.174596   
N32      N      0.171440000000     0.364770000000     0.322530000000    -0.110416   
N33      N      0.114240000000     0.422640000000     0.403210000000    -0.113514   
N34      N      0.081490000000     0.456440000000     0.435460000000    -0.163352   
N35      N      0.159400000000     0.329270000000     0.274450000000    -0.18752    
N36      N      0.331360000000     0.330100000000     0.183370000000    -0.178952   
N37      N      0.359570000000     0.360550000000     0.144530000000    -0.109783   
N38      N      0.429900000000     0.433960000000     0.087830000000    -0.113927   
N39      N      0.459400000000     0.462380000000     0.048540000000    -0.165185   
N40      N      0.298730000000     0.346080000000     0.150820000000    -0.195925   
N41      N      0.213990000000     0.205630000000     0.682880000000    -0.178801   
N42      N      0.185260000000     0.175840000000     0.643870000000    -0.109873   
N43      N      0.110110000000     0.107670000000     0.586740000000    -0.113889   
N44      N      0.080350000000     0.079400000000     0.547470000000    -0.165138   
N45      N      0.246870000000     0.186650000000     0.652060000000    -0.196191   
N46      N      0.080390000000     0.076930000000     0.930220000000    -0.176825   
N47      N      0.110850000000     0.106410000000     0.891970000000    -0.110188   
N48      N      0.182730000000     0.181360000000     0.838450000000    -0.114078   
N49      N      0.212940000000     0.210970000000     0.800230000000    -0.163474   
N50      N      0.050730000000     0.088640000000     0.893870000000    -0.196103   
N51      N      0.203530000000     0.336560000000     0.694210000000    -0.177466   
N52      N      0.171460000000     0.368870000000     0.659280000000    -0.109797   
N53      N      0.121450000000     0.418300000000     0.569430000000    -0.113744   
N54      N      0.089110000000     0.450460000000     0.534690000000    -0.163715   
N55      N      0.202670000000     0.384090000000     0.708810000000    -0.195355   
N56      N      0.450330000000     0.090360000000     0.531150000000    -0.177692   
N57      N      0.418960000000     0.121700000000     0.567430000000    -0.109867   
N58      N      0.372370000000     0.167390000000     0.660570000000    -0.113939   
N59      N      0.341460000000     0.198580000000     0.697150000000    -0.16443    
N60      N      0.402520000000     0.092740000000     0.517110000000    -0.19554    
N61      N      0.462100000000     0.460540000000     0.930420000000    -0.176689   
N62      N      0.432490000000     0.430080000000     0.892210000000    -0.109966   
N63      N      0.359310000000     0.356000000000     0.839030000000    -0.114073   
N64      N      0.329670000000     0.326000000000     0.800630000000    -0.163337   
N65      N      0.493650000000     0.444610000000     0.896940000000    -0.196044   
N66      N      0.329290000000     0.214390000000     0.803650000000    -0.17602    
N67      N      0.360270000000     0.184230000000     0.841090000000    -0.110192   
N68      N      0.434090000000     0.107530000000     0.889840000000    -0.114265   
N69      N      0.464590000000     0.076190000000     0.926530000000    -0.163378   
N70      N      0.299990000000     0.201980000000     0.840110000000    -0.195892   
N71      N      0.205910000000     0.331200000000     0.791340000000    -0.174596   
N72      N      0.171440000000     0.364770000000     0.822530000000    -0.110418   
N73      N      0.114240000000     0.422640000000     0.903210000000    -0.113546   
N74      N      0.081490000000     0.456440000000     0.935460000000    -0.16337    
N75      N      0.159400000000     0.329270000000     0.774450000000    -0.187517   
N76      N      0.331360000000     0.330100000000     0.683370000000    -0.178949   
N77      N      0.359570000000     0.360550000000     0.644530000000    -0.109794   
N78      N      0.429900000000     0.433960000000     0.587830000000    -0.113932   
N79      N      0.459400000000     0.462380000000     0.548540000000    -0.165281   
N80      N      0.298730000000     0.346080000000     0.650820000000    -0.195931   
N81      N      0.213990000000     0.705630000000     0.182890000000    -0.178863   
N82      N      0.185260000000     0.675850000000     0.143870000000    -0.109845   
N83      N      0.110110000000     0.607670000000     0.086740000000    -0.113895   
N84      N      0.080350000000     0.579400000000     0.047470000000    -0.165027   
N85      N      0.246870000000     0.686650000000     0.152050000000    -0.196124   
N86      N      0.080390000000     0.576930000000     0.430220000000    -0.176806   
N87      N      0.110850000000     0.606420000000     0.391970000000    -0.110177   
N88      N      0.182730000000     0.681360000000     0.338450000000    -0.114065   
N89      N      0.212940000000     0.710970000000     0.300230000000    -0.163502   
N90      N      0.050730000000     0.588640000000     0.393870000000    -0.196107   
N91      N      0.203530000000     0.836560000000     0.194210000000    -0.177503   
N92      N      0.171460000000     0.868870000000     0.159280000000    -0.109783   
N93      N      0.121450000000     0.918300000000     0.069430000000    -0.113711   
N94      N      0.089110000000     0.950460000000     0.034690000000    -0.163577   
N95      N      0.202670000000     0.884080000000     0.208810000000    -0.195372   
N96      N      0.450330000000     0.590360000000     0.031150000000    -0.17754    
N97      N      0.418960000000     0.621700000000     0.067430000000    -0.109845   
N98      N      0.372370000000     0.667390000000     0.160570000000    -0.113928   
N99      N      0.341460000000     0.698580000000     0.197150000000    -0.164431   
N100     N      0.402520000000     0.592740000000     0.017110000000    -0.194763   
N101     N      0.462100000000     0.960540000000     0.430420000000    -0.176651   
N102     N      0.432490000000     0.930080000000     0.392210000000    -0.109958   
N103     N      0.359310000000     0.856000000000     0.339030000000    -0.114054   
N104     N      0.329670000000     0.826000000000     0.300630000000    -0.163339   
N105     N      0.493650000000     0.944610000000     0.396940000000    -0.196036   
N106     N      0.329290000000     0.714390000000     0.303650000000    -0.176022   
N107     N      0.360270000000     0.684230000000     0.341090000000    -0.110177   
N108     N      0.434090000000     0.607530000000     0.389840000000    -0.114249   
N109     N      0.464590000000     0.576190000000     0.426530000000    -0.163396   
N110     N      0.299990000000     0.701980000000     0.340110000000    -0.19588    
N111     N      0.205910000000     0.831200000000     0.291340000000    -0.174594   
N112     N      0.171440000000     0.864770000000     0.322530000000    -0.110414   
N113     N      0.114240000000     0.922640000000     0.403210000000    -0.113502   
N114     N      0.081490000000     0.956450000000     0.435460000000    -0.163384   
N115     N      0.159400000000     0.829270000000     0.274450000000    -0.187522   
N116     N      0.331360000000     0.830100000000     0.183370000000    -0.178955   
N117     N      0.359570000000     0.860550000000     0.144530000000    -0.109779   
N118     N      0.429900000000     0.933960000000     0.087830000000    -0.113916   
N119     N      0.459400000000     0.962380000000     0.048540000000    -0.165154   
N120     N      0.298730000000     0.846090000000     0.150820000000    -0.195842   
N121     N      0.213990000000     0.705630000000     0.682880000000    -0.178803   
N122     N      0.185260000000     0.675850000000     0.643870000000    -0.109857   
N123     N      0.110110000000     0.607670000000     0.586740000000    -0.113897   
N124     N      0.080350000000     0.579400000000     0.547470000000    -0.165117   
N125     N      0.246870000000     0.686650000000     0.652060000000    -0.196183   
N126     N      0.080390000000     0.576930000000     0.930220000000    -0.17681    
N127     N      0.110850000000     0.606420000000     0.891970000000    -0.110182   
N128     N      0.182730000000     0.681360000000     0.838450000000    -0.114078   
N129     N      0.212940000000     0.710970000000     0.800230000000    -0.163504   
N130     N      0.050730000000     0.588640000000     0.893870000000    -0.196109   
N131     N      0.203530000000     0.836560000000     0.694210000000    -0.177502   
N132     N      0.171460000000     0.868870000000     0.659280000000    -0.109791   
N133     N      0.121450000000     0.918300000000     0.569430000000    -0.113738   
N134     N      0.089110000000     0.950460000000     0.534690000000    -0.163691   
N135     N      0.202670000000     0.884080000000     0.708810000000    -0.195383   
N136     N      0.450330000000     0.590360000000     0.531150000000    -0.177684   
N137     N      0.418960000000     0.621700000000     0.567430000000    -0.109868   
N138     N      0.372370000000     0.667390000000     0.660570000000    -0.113929   
N139     N      0.341460000000     0.698580000000     0.697150000000    -0.164428   
N140     N      0.402520000000     0.592740000000     0.517110000000    -0.195522   
N141     N      0.462100000000     0.960540000000     0.930420000000    -0.176657   
N142     N      0.432490000000     0.930080000000     0.892210000000    -0.109963   
N143     N      0.359310000000     0.856000000000     0.839030000000    -0.114073   
N144     N      0.329670000000     0.826000000000     0.800630000000    -0.163333   
N145     N      0.493650000000     0.944610000000     0.896940000000    -0.196094   
N146     N      0.329290000000     0.714390000000     0.803650000000    -0.17602    
N147     N      0.360270000000     0.684230000000     0.841090000000    -0.11019    
N148     N      0.434090000000     0.607530000000     0.889840000000    -0.114254   
N149     N      0.464590000000     0.576190000000     0.926530000000    -0.163391   
N150     N      0.299990000000     0.701980000000     0.840110000000    -0.195889   
N151     N      0.205910000000     0.831200000000     0.791340000000    -0.174594   
N152     N      0.171440000000     0.864770000000     0.822530000000    -0.110416   
N153     N      0.114240000000     0.922640000000     0.903210000000    -0.113534   
N154     N      0.081490000000     0.956450000000     0.935460000000    -0.163402   
N155     N      0.159400000000     0.829270000000     0.774450000000    -0.187519   
N156     N      0.331360000000     0.830100000000     0.683370000000    -0.178952   
N157     N      0.359570000000     0.860550000000     0.644530000000    -0.10979    
N158     N      0.429900000000     0.933960000000     0.587830000000    -0.113921   
N159     N      0.459400000000     0.962380000000     0.548540000000    -0.165249   
N160     N      0.298730000000     0.846090000000     0.650820000000    -0.195848   
N161     N      0.713990000000     0.205630000000     0.182890000000    -0.178858   
N162     N      0.685260000000     0.175840000000     0.143870000000    -0.109857   
N163     N      0.610110000000     0.107670000000     0.086740000000    -0.113879   
N164     N      0.580350000000     0.079400000000     0.047470000000    -0.165027   
N165     N      0.746870000000     0.186650000000     0.152050000000    -0.196133   
N166     N      0.580390000000     0.076930000000     0.430220000000    -0.176813   
N167     N      0.610850000000     0.106410000000     0.391970000000    -0.110171   
N168     N      0.682730000000     0.181360000000     0.338450000000    -0.114064   
N169     N      0.712940000000     0.210970000000     0.300230000000    -0.163471   
N170     N      0.550730000000     0.088640000000     0.393870000000    -0.196056   
N171     N      0.703530000000     0.336560000000     0.194210000000    -0.177429   
N172     N      0.671460000000     0.368870000000     0.159280000000    -0.10978    
N173     N      0.621450000000     0.418300000000     0.069430000000    -0.113712   
N174     N      0.589110000000     0.450460000000     0.034690000000    -0.163586   
N175     N      0.702670000000     0.384090000000     0.208810000000    -0.195342   
N176     N      0.950330000000     0.090360000000     0.031150000000    -0.177517   
N177     N      0.918970000000     0.121700000000     0.067430000000    -0.109842   
N178     N      0.872370000000     0.167390000000     0.160570000000    -0.11393    
N179     N      0.841460000000     0.198580000000     0.197150000000    -0.164403   
N180     N      0.902520000000     0.092740000000     0.017110000000    -0.194788   
N181     N      0.962100000000     0.460540000000     0.430420000000    -0.176634   
N182     N      0.932480000000     0.430080000000     0.392210000000    -0.109987   
N183     N      0.859310000000     0.356000000000     0.339030000000    -0.114049   
N184     N      0.829670000000     0.326000000000     0.300630000000    -0.163342   
N185     N      0.993650000000     0.444610000000     0.396940000000    -0.195579   
N186     N      0.829290000000     0.214390000000     0.303650000000    -0.176028   
N187     N      0.860270000000     0.184230000000     0.341090000000    -0.110166   
N188     N      0.934090000000     0.107530000000     0.389840000000    -0.114243   
N189     N      0.964590000000     0.076190000000     0.426530000000    -0.163353   
N190     N      0.799990000000     0.201980000000     0.340110000000    -0.19589    
N191     N      0.705910000000     0.331200000000     0.291340000000    -0.174598   
N192     N      0.671440000000     0.364770000000     0.322530000000    -0.110412   
N193     N      0.614230000000     0.422640000000     0.403210000000    -0.113503   
N194     N      0.581490000000     0.456440000000     0.435460000000    -0.163335   
N195     N      0.659400000000     0.329270000000     0.274450000000    -0.187522   
N196     N      0.831360000000     0.330100000000     0.183370000000    -0.17896    
N197     N      0.859570000000     0.360550000000     0.144530000000    -0.109777   
N198     N      0.929900000000     0.433960000000     0.087830000000    -0.113911   
N199     N      0.959400000000     0.462380000000     0.048540000000    -0.16515    
N200     N      0.798730000000     0.346080000000     0.150820000000    -0.195918   
N201     N      0.713990000000     0.205630000000     0.682880000000    -0.178798   
N202     N      0.685260000000     0.175840000000     0.643870000000    -0.109869   
N203     N      0.610110000000     0.107670000000     0.586740000000    -0.11388    
N204     N      0.580350000000     0.079400000000     0.547470000000    -0.165117   
N205     N      0.746870000000     0.186650000000     0.652060000000    -0.196192   
N206     N      0.580390000000     0.076930000000     0.930220000000    -0.176817   
N207     N      0.610850000000     0.106410000000     0.891970000000    -0.110176   
N208     N      0.682730000000     0.181360000000     0.838450000000    -0.114077   
N209     N      0.712940000000     0.210970000000     0.800230000000    -0.163472   
N210     N      0.550730000000     0.088640000000     0.893870000000    -0.196058   
N211     N      0.703530000000     0.336560000000     0.694210000000    -0.177428   
N212     N      0.671460000000     0.368870000000     0.659280000000    -0.109789   
N213     N      0.621450000000     0.418300000000     0.569430000000    -0.113739   
N214     N      0.589110000000     0.450460000000     0.534690000000    -0.163701   
N215     N      0.702670000000     0.384090000000     0.708810000000    -0.195354   
N216     N      0.950330000000     0.090360000000     0.531150000000    -0.17766    
N217     N      0.918970000000     0.121700000000     0.567430000000    -0.109865   
N218     N      0.872370000000     0.167390000000     0.660570000000    -0.113931   
N219     N      0.841460000000     0.198580000000     0.697150000000    -0.164401   
N220     N      0.902520000000     0.092740000000     0.517110000000    -0.195545   
N221     N      0.962100000000     0.460540000000     0.930420000000    -0.176641   
N222     N      0.932480000000     0.430080000000     0.892210000000    -0.109991   
N223     N      0.859310000000     0.356000000000     0.839030000000    -0.114068   
N224     N      0.829670000000     0.326000000000     0.800630000000    -0.163336   
N225     N      0.993650000000     0.444610000000     0.896940000000    -0.195636   
N226     N      0.829290000000     0.214390000000     0.803650000000    -0.176026   
N227     N      0.860270000000     0.184230000000     0.841090000000    -0.110178   
N228     N      0.934090000000     0.107530000000     0.889840000000    -0.114248   
N229     N      0.964590000000     0.076190000000     0.926530000000    -0.163348   
N230     N      0.799990000000     0.201980000000     0.840110000000    -0.195899   
N231     N      0.705910000000     0.331200000000     0.791340000000    -0.174598   
N232     N      0.671440000000     0.364770000000     0.822530000000    -0.110414   
N233     N      0.614230000000     0.422640000000     0.903210000000    -0.113535   
N234     N      0.581490000000     0.456440000000     0.935460000000    -0.163353   
N235     N      0.659400000000     0.329270000000     0.774450000000    -0.187519   
N236     N      0.831360000000     0.330100000000     0.683370000000    -0.178958   
N237     N      0.859570000000     0.360550000000     0.644530000000    -0.109788   
N238     N      0.929900000000     0.433960000000     0.587830000000    -0.113916   
N239     N      0.959400000000     0.462380000000     0.548540000000    -0.165245   
N240     N      0.798730000000     0.346080000000     0.650820000000    -0.195923   
N241     N      0.713990000000     0.705630000000     0.182890000000    -0.178861   
N242     N      0.685260000000     0.675850000000     0.143870000000    -0.109841   
N243     N      0.610110000000     0.607670000000     0.086740000000    -0.113887   
N244     N      0.580350000000     0.579400000000     0.047470000000    -0.165006   
N245     N      0.746870000000     0.686650000000     0.152050000000    -0.196126   
N246     N      0.580390000000     0.576930000000     0.430220000000    -0.176798   
N247     N      0.610850000000     0.606420000000     0.391970000000    -0.110165   
N248     N      0.682730000000     0.681360000000     0.338450000000    -0.114064   
N249     N      0.712940000000     0.710970000000     0.300230000000    -0.1635     
N250     N      0.550730000000     0.588640000000     0.393870000000    -0.196062   
N251     N      0.703530000000     0.836560000000     0.194210000000    -0.177465   
N252     N      0.671460000000     0.868870000000     0.159280000000    -0.109775   
N253     N      0.621450000000     0.918300000000     0.069430000000    -0.113706   
N254     N      0.589110000000     0.950460000000     0.034690000000    -0.163562   
N255     N      0.702670000000     0.884080000000     0.208810000000    -0.195371   
N256     N      0.950330000000     0.590360000000     0.031150000000    -0.177509   
N257     N      0.918970000000     0.621700000000     0.067430000000    -0.109843   
N258     N      0.872370000000     0.667390000000     0.160570000000    -0.11392    
N259     N      0.841460000000     0.698580000000     0.197150000000    -0.164402   
N260     N      0.902520000000     0.592740000000     0.017110000000    -0.194769   
N261     N      0.962100000000     0.960540000000     0.430420000000    -0.176603   
N262     N      0.932480000000     0.930080000000     0.392210000000    -0.109983   
N263     N      0.859310000000     0.856000000000     0.339030000000    -0.114049   
N264     N      0.829670000000     0.826000000000     0.300630000000    -0.163338   
N265     N      0.993650000000     0.944610000000     0.396940000000    -0.195628   
N266     N      0.829290000000     0.714390000000     0.303650000000    -0.176028   
N267     N      0.860270000000     0.684230000000     0.341090000000    -0.110164   
N268     N      0.934090000000     0.607530000000     0.389840000000    -0.114231   
N269     N      0.964590000000     0.576190000000     0.426530000000    -0.163367   
N270     N      0.799990000000     0.701980000000     0.340110000000    -0.195887   
N271     N      0.705910000000     0.831200000000     0.291340000000    -0.174596   
N272     N      0.671440000000     0.864770000000     0.322530000000    -0.11041    
N273     N      0.614230000000     0.922640000000     0.403210000000    -0.113491   
N274     N      0.581490000000     0.956450000000     0.435460000000    -0.163367   
N275     N      0.659400000000     0.829270000000     0.274450000000    -0.187524   
N276     N      0.831360000000     0.830100000000     0.183370000000    -0.178964   
N277     N      0.859570000000     0.860550000000     0.144530000000    -0.109773   
N278     N      0.929900000000     0.933960000000     0.087830000000    -0.1139     
N279     N      0.959400000000     0.962380000000     0.048540000000    -0.165119   
N280     N      0.798730000000     0.846090000000     0.150820000000    -0.195834   
N281     N      0.713990000000     0.705630000000     0.682880000000    -0.178801   
N282     N      0.685260000000     0.675850000000     0.643870000000    -0.109854   
N283     N      0.610110000000     0.607670000000     0.586740000000    -0.113888   
N284     N      0.580350000000     0.579400000000     0.547470000000    -0.165096   
N285     N      0.746870000000     0.686650000000     0.652060000000    -0.196185   
N286     N      0.580390000000     0.576930000000     0.930220000000    -0.176802   
N287     N      0.610850000000     0.606420000000     0.891970000000    -0.11017    
N288     N      0.682730000000     0.681360000000     0.838450000000    -0.114077   
N289     N      0.712940000000     0.710970000000     0.800230000000    -0.163501   
N290     N      0.550730000000     0.588640000000     0.893870000000    -0.196063   
N291     N      0.703530000000     0.836560000000     0.694210000000    -0.177464   
N292     N      0.671460000000     0.868870000000     0.659280000000    -0.109783   
N293     N      0.621450000000     0.918300000000     0.569430000000    -0.113734   
N294     N      0.589110000000     0.950460000000     0.534690000000    -0.163676   
N295     N      0.702670000000     0.884080000000     0.708810000000    -0.195383   
N296     N      0.950330000000     0.590360000000     0.531150000000    -0.177652   
N297     N      0.918970000000     0.621700000000     0.567430000000    -0.109866   
N298     N      0.872370000000     0.667390000000     0.660570000000    -0.113921   
N299     N      0.841460000000     0.698580000000     0.697150000000    -0.164399   
N300     N      0.902520000000     0.592740000000     0.517110000000    -0.195526   
N301     N      0.962100000000     0.960540000000     0.930420000000    -0.176609   
N302     N      0.932480000000     0.930080000000     0.892210000000    -0.109988   
N303     N      0.859310000000     0.856000000000     0.839030000000    -0.114068   
N304     N      0.829670000000     0.826000000000     0.800630000000    -0.163333   
N305     N      0.993650000000     0.944610000000     0.896940000000    -0.195685   
N306     N      0.829290000000     0.714390000000     0.803650000000    -0.176026   
N307     N      0.860270000000     0.684230000000     0.841090000000    -0.110177   
N308     N      0.934090000000     0.607530000000     0.889840000000    -0.114237   
N309     N      0.964590000000     0.576190000000     0.926530000000    -0.163361   
N310     N      0.799990000000     0.701980000000     0.840110000000    -0.195896   
N311     N      0.705910000000     0.831200000000     0.791340000000    -0.174596   
N312     N      0.671440000000     0.864770000000     0.822530000000    -0.110412   
N313     N      0.614230000000     0.922640000000     0.903210000000    -0.113523   
N314     N      0.581490000000     0.956450000000     0.935460000000    -0.163385   
N315     N      0.659400000000     0.829270000000     0.774450000000    -0.187521   
N316     N      0.831360000000     0.830100000000     0.683370000000    -0.178961   
N317     N      0.859570000000     0.860550000000     0.644530000000    -0.109784   
N318     N      0.929900000000     0.933960000000     0.587830000000    -0.113905   
N319     N      0.959400000000     0.962380000000     0.548540000000    -0.165214   
N320     N      0.798730000000     0.846090000000     0.650820000000    -0.19584    
O1       O      0.462640000000     0.496910000000     0.018030000000    -0.369197   
O2       O      0.076900000000     0.043660000000     0.018440000000    -0.370542   
O3       O      0.048260000000     0.458670000000     0.013050000000    -0.359571   
O4       O      0.491600000000     0.081630000000     0.010380000000    -0.36427    
O5       O      0.081220000000     0.490940000000     0.012560000000    -0.359628   
O6       O      0.458520000000     0.049450000000     0.009870000000    -0.365294   
O7       O      0.044990000000     0.076950000000     0.017580000000    -0.368727   
O8       O      0.495180000000     0.464260000000     0.019290000000    -0.371402   
O9       O      0.465620000000     0.042330000000     0.457830000000    -0.363687   
O10      O      0.076890000000     0.494450000000     0.461810000000    -0.364032   
O11      O      0.496820000000     0.463560000000     0.460880000000    -0.371784   
O12      O      0.044490000000     0.074940000000     0.459500000000    -0.369005   
O13      O      0.077300000000     0.042550000000     0.460930000000    -0.371236   
O14      O      0.464190000000     0.496140000000     0.459940000000    -0.368893   
O15      O      0.498620000000     0.074590000000     0.457780000000    -0.362539   
O16      O      0.044010000000     0.462040000000     0.462390000000    -0.363109   
O17      O      0.519970000000     0.520100000000     0.001040000000    -0.581733   
O18      O      0.296150000000     0.325960000000     0.212990000000    -0.373444   
O19      O      0.248710000000     0.209630000000     0.213270000000    -0.370778   
O20      O      0.333520000000     0.239550000000     0.218410000000    -0.366446   
O21      O      0.211190000000     0.295900000000     0.216130000000    -0.359941   
O22      O      0.300930000000     0.206890000000     0.219230000000    -0.365224   
O23      O      0.243640000000     0.328690000000     0.217120000000    -0.361797   
O24      O      0.216320000000     0.242370000000     0.210930000000    -0.373405   
O25      O      0.328810000000     0.293420000000     0.211670000000    -0.372555   
O26      O      0.245480000000     0.325360000000     0.267250000000    -0.366493   
O27      O      0.294600000000     0.215180000000     0.273040000000    -0.365685   
O28      O      0.328300000000     0.291920000000     0.269560000000    -0.365613   
O29      O      0.215400000000     0.244780000000     0.268900000000    -0.370445   
O30      O      0.248840000000     0.213090000000     0.270990000000    -0.367042   
O31      O      0.294430000000     0.323200000000     0.270670000000    -0.372741   
O32      O      0.212780000000     0.292800000000     0.265940000000    -0.359503   
O33      O      0.327990000000     0.246960000000     0.271120000000    -0.361659   
O34      O      0.272250000000     0.267910000000     0.228920000000    -0.585889   
O35      O      0.462640000000     0.496910000000     0.518030000000    -0.370035   
O36      O      0.076900000000     0.043660000000     0.518440000000    -0.371353   
O37      O      0.048260000000     0.458670000000     0.513050000000    -0.36042    
O38      O      0.491600000000     0.081630000000     0.510380000000    -0.365125   
O39      O      0.081220000000     0.490940000000     0.512560000000    -0.360488   
O40      O      0.458520000000     0.049450000000     0.509870000000    -0.366203   
O41      O      0.044990000000     0.076950000000     0.517580000000    -0.369536   
O42      O      0.495180000000     0.464260000000     0.519300000000    -0.372198   
O43      O      0.465620000000     0.042330000000     0.957830000000    -0.363592   
O44      O      0.076890000000     0.494450000000     0.961810000000    -0.363979   
O45      O      0.496820000000     0.463560000000     0.960880000000    -0.371685   
O46      O      0.044490000000     0.074940000000     0.959500000000    -0.368911   
O47      O      0.077300000000     0.042550000000     0.960930000000    -0.371148   
O48      O      0.464190000000     0.496140000000     0.959940000000    -0.368795   
O49      O      0.498620000000     0.074590000000     0.957780000000    -0.362462   
O50      O      0.044010000000     0.462040000000     0.962390000000    -0.363068   
O51      O      0.519970000000     0.520100000000     0.501040000000    -0.58368    
O52      O      0.296150000000     0.325960000000     0.712990000000    -0.373441   
O53      O      0.248710000000     0.209630000000     0.713270000000    -0.370748   
O54      O      0.333520000000     0.239550000000     0.718410000000    -0.366442   
O55      O      0.211190000000     0.295900000000     0.716130000000    -0.35994    
O56      O      0.300930000000     0.206890000000     0.719230000000    -0.365221   
O57      O      0.243640000000     0.328690000000     0.717120000000    -0.361795   
O58      O      0.216320000000     0.242370000000     0.710930000000    -0.373376   
O59      O      0.328810000000     0.293420000000     0.711670000000    -0.372554   
O60      O      0.245480000000     0.325360000000     0.767250000000    -0.366491   
O61      O      0.294600000000     0.215180000000     0.773040000000    -0.365682   
O62      O      0.328300000000     0.291920000000     0.769560000000    -0.365609   
O63      O      0.215400000000     0.244780000000     0.768900000000    -0.370443   
O64      O      0.248840000000     0.213090000000     0.770990000000    -0.367038   
O65      O      0.294430000000     0.323200000000     0.770670000000    -0.372739   
O66      O      0.212780000000     0.292800000000     0.765940000000    -0.359501   
O67      O      0.327990000000     0.246960000000     0.771120000000    -0.361656   
O68      O      0.272250000000     0.267910000000     0.728920000000    -0.585891   
O69      O      0.462640000000     0.996910000000     0.018030000000    -0.368834   
O70      O      0.076900000000     0.543660000000     0.018440000000    -0.370501   
O71      O      0.048260000000     0.958670000000     0.013050000000    -0.359568   
O72      O      0.491600000000     0.581630000000     0.010380000000    -0.364268   
O73      O      0.081220000000     0.990940000000     0.012560000000    -0.359287   
O74      O      0.458520000000     0.549450000000     0.009870000000    -0.365262   
O75      O      0.044990000000     0.576950000000     0.017580000000    -0.368721   
O76      O      0.495180000000     0.964260000000     0.019290000000    -0.371383   
O77      O      0.465620000000     0.542330000000     0.457830000000    -0.363505   
O78      O      0.076890000000     0.994450000000     0.461810000000    -0.363691   
O79      O      0.496820000000     0.963560000000     0.460880000000    -0.371771   
O80      O      0.044490000000     0.574940000000     0.459500000000    -0.368996   
O81      O      0.077300000000     0.542550000000     0.460930000000    -0.371168   
O82      O      0.464190000000     0.996140000000     0.459940000000    -0.368515   
O83      O      0.498620000000     0.574590000000     0.457780000000    -0.362566   
O84      O      0.044010000000     0.962040000000     0.462390000000    -0.363124   
O85      O      0.519970000000     0.020100000000     0.001040000000    -0.581886   
O86      O      0.296150000000     0.825960000000     0.212990000000    -0.373443   
O87      O      0.248710000000     0.709630000000     0.213270000000    -0.370776   
O88      O      0.333520000000     0.739550000000     0.218410000000    -0.366447   
O89      O      0.211190000000     0.795900000000     0.216130000000    -0.359966   
O90      O      0.300930000000     0.706890000000     0.219230000000    -0.36522    
O91      O      0.243640000000     0.828680000000     0.217120000000    -0.361919   
O92      O      0.216320000000     0.742370000000     0.210930000000    -0.373406   
O93      O      0.328810000000     0.793420000000     0.211670000000    -0.372557   
O94      O      0.245480000000     0.825360000000     0.267250000000    -0.366499   
O95      O      0.294600000000     0.715180000000     0.273040000000    -0.36568    
O96      O      0.328300000000     0.791920000000     0.269560000000    -0.365614   
O97      O      0.215400000000     0.744780000000     0.268900000000    -0.370338   
O98      O      0.248840000000     0.713090000000     0.270990000000    -0.36707    
O99      O      0.294430000000     0.823200000000     0.270670000000    -0.372748   
O100     O      0.212780000000     0.792800000000     0.265940000000    -0.359507   
O101     O      0.327990000000     0.746960000000     0.271120000000    -0.361659   
O102     O      0.272250000000     0.767910000000     0.228920000000    -0.585892   
O103     O      0.462640000000     0.996910000000     0.518030000000    -0.36967    
O104     O      0.076900000000     0.543660000000     0.518440000000    -0.371312   
O105     O      0.048260000000     0.958670000000     0.513050000000    -0.360414   
O106     O      0.491600000000     0.581630000000     0.510380000000    -0.365123   
O107     O      0.081220000000     0.990940000000     0.512560000000    -0.360144   
O108     O      0.458520000000     0.549450000000     0.509870000000    -0.366171   
O109     O      0.044990000000     0.576950000000     0.517580000000    -0.36953    
O110     O      0.495180000000     0.964260000000     0.519300000000    -0.372177   
O111     O      0.465620000000     0.542330000000     0.957830000000    -0.36341    
O112     O      0.076890000000     0.994450000000     0.961810000000    -0.363637   
O113     O      0.496820000000     0.963560000000     0.960880000000    -0.371672   
O114     O      0.044490000000     0.574940000000     0.959500000000    -0.368902   
O115     O      0.077300000000     0.542550000000     0.960930000000    -0.37108    
O116     O      0.464190000000     0.996140000000     0.959940000000    -0.368416   
O117     O      0.498620000000     0.574590000000     0.957780000000    -0.362489   
O118     O      0.044010000000     0.962040000000     0.962390000000    -0.363083   
O119     O      0.519970000000     0.020100000000     0.501040000000    -0.583831   
O120     O      0.296150000000     0.825960000000     0.712990000000    -0.37344    
O121     O      0.248710000000     0.709630000000     0.713270000000    -0.370746   
O122     O      0.333520000000     0.739550000000     0.718410000000    -0.366442   
O123     O      0.211190000000     0.795900000000     0.716130000000    -0.359965   
O124     O      0.300930000000     0.706890000000     0.719230000000    -0.365217   
O125     O      0.243640000000     0.828680000000     0.717120000000    -0.361916   
O126     O      0.216320000000     0.742370000000     0.710930000000    -0.373377   
O127     O      0.328810000000     0.793420000000     0.711670000000    -0.372555   
O128     O      0.245480000000     0.825360000000     0.767250000000    -0.366497   
O129     O      0.294600000000     0.715180000000     0.773040000000    -0.365676   
O130     O      0.328300000000     0.791920000000     0.769560000000    -0.36561    
O131     O      0.215400000000     0.744780000000     0.768900000000    -0.370335   
O132     O      0.248840000000     0.713090000000     0.770990000000    -0.367066   
O133     O      0.294430000000     0.823200000000     0.770670000000    -0.372746   
O134     O      0.212780000000     0.792800000000     0.765940000000    -0.359504   
O135     O      0.327990000000     0.746960000000     0.771120000000    -0.361656   
O136     O      0.272250000000     0.767910000000     0.728920000000    -0.585894   
O137     O      0.962640000000     0.496910000000     0.018030000000    -0.369175   
O138     O      0.576900000000     0.043660000000     0.018440000000    -0.370533   
O139     O      0.548260000000     0.458670000000     0.013050000000    -0.359524   
O140     O      0.991600000000     0.081630000000     0.010380000000    -0.363854   
O141     O      0.581220000000     0.490940000000     0.012560000000    -0.359623   
O142     O      0.958520000000     0.049450000000     0.009870000000    -0.365291   
O143     O      0.544990000000     0.076950000000     0.017580000000    -0.368676   
O144     O      0.995180000000     0.464260000000     0.019290000000    -0.37096    
O145     O      0.965620000000     0.042330000000     0.457830000000    -0.363669   
O146     O      0.576890000000     0.494450000000     0.461810000000    -0.364022   
O147     O      0.996820000000     0.463560000000     0.460880000000    -0.371311   
O148     O      0.544490000000     0.074940000000     0.459500000000    -0.368919   
O149     O      0.577300000000     0.042550000000     0.460930000000    -0.371225   
O150     O      0.964190000000     0.496140000000     0.459940000000    -0.368879   
O151     O      0.998620000000     0.074590000000     0.457780000000    -0.362085   
O152     O      0.544010000000     0.462040000000     0.462390000000    -0.363041   
O153     O      0.019970000000     0.520100000000     0.001040000000    -0.581918   
O154     O      0.796150000000     0.325960000000     0.212990000000    -0.373437   
O155     O      0.748710000000     0.209630000000     0.213270000000    -0.370725   
O156     O      0.833530000000     0.239550000000     0.218410000000    -0.366322   
O157     O      0.711190000000     0.295900000000     0.216130000000    -0.359883   
O158     O      0.800930000000     0.206890000000     0.219230000000    -0.365267   
O159     O      0.743650000000     0.328690000000     0.217120000000    -0.361691   
O160     O      0.716320000000     0.242370000000     0.210930000000    -0.373394   
O161     O      0.828810000000     0.293420000000     0.211670000000    -0.372539   
O162     O      0.745480000000     0.325360000000     0.267250000000    -0.366504   
O163     O      0.794600000000     0.215180000000     0.273040000000    -0.365738   
O164     O      0.828300000000     0.291920000000     0.269560000000    -0.365589   
O165     O      0.715400000000     0.244780000000     0.268900000000    -0.370433   
O166     O      0.748840000000     0.213090000000     0.270990000000    -0.366984   
O167     O      0.794430000000     0.323200000000     0.270670000000    -0.372743   
O168     O      0.712780000000     0.292800000000     0.265940000000    -0.359508   
O169     O      0.827990000000     0.246960000000     0.271120000000    -0.361652   
O170     O      0.772250000000     0.267910000000     0.228920000000    -0.58589    
O171     O      0.962640000000     0.496910000000     0.518030000000    -0.37001    
O172     O      0.576900000000     0.043660000000     0.518440000000    -0.371344   
O173     O      0.548260000000     0.458670000000     0.513050000000    -0.360373   
O174     O      0.991600000000     0.081630000000     0.510380000000    -0.364706   
O175     O      0.581220000000     0.490940000000     0.512560000000    -0.360483   
O176     O      0.958520000000     0.049450000000     0.509870000000    -0.366198   
O177     O      0.544990000000     0.076950000000     0.517580000000    -0.369485   
O178     O      0.995180000000     0.464260000000     0.519300000000    -0.371754   
O179     O      0.965620000000     0.042330000000     0.957830000000    -0.363575   
O180     O      0.576890000000     0.494450000000     0.961810000000    -0.363968   
O181     O      0.996820000000     0.463560000000     0.960880000000    -0.371212   
O182     O      0.544490000000     0.074940000000     0.959500000000    -0.368825   
O183     O      0.577300000000     0.042550000000     0.960930000000    -0.371137   
O184     O      0.964190000000     0.496140000000     0.959940000000    -0.368781   
O185     O      0.998620000000     0.074590000000     0.957780000000    -0.362008   
O186     O      0.544010000000     0.462040000000     0.962390000000    -0.363001   
O187     O      0.019970000000     0.520100000000     0.501040000000    -0.583863   
O188     O      0.796150000000     0.325960000000     0.712990000000    -0.373433   
O189     O      0.748710000000     0.209630000000     0.713270000000    -0.370694   
O190     O      0.833530000000     0.239550000000     0.718410000000    -0.366317   
O191     O      0.711190000000     0.295900000000     0.716130000000    -0.359881   
O192     O      0.800930000000     0.206890000000     0.719230000000    -0.365264   
O193     O      0.743650000000     0.328690000000     0.717120000000    -0.361688   
O194     O      0.716320000000     0.242370000000     0.710930000000    -0.373365   
O195     O      0.828810000000     0.293420000000     0.711670000000    -0.372537   
O196     O      0.745480000000     0.325360000000     0.767250000000    -0.366502   
O197     O      0.794600000000     0.215180000000     0.773040000000    -0.365735   
O198     O      0.828300000000     0.291920000000     0.769560000000    -0.365585   
O199     O      0.715400000000     0.244780000000     0.768900000000    -0.37043    
O200     O      0.748840000000     0.213090000000     0.770990000000    -0.36698    
O201     O      0.794430000000     0.323200000000     0.770670000000    -0.37274    
O202     O      0.712780000000     0.292800000000     0.765940000000    -0.359505   
O203     O      0.827990000000     0.246960000000     0.771120000000    -0.361649   
O204     O      0.772250000000     0.267910000000     0.728920000000    -0.585892   
O205     O      0.962640000000     0.996910000000     0.018030000000    -0.368812   
O206     O      0.576900000000     0.543660000000     0.018440000000    -0.370491   
O207     O      0.548260000000     0.958670000000     0.013050000000    -0.35952    
O208     O      0.991600000000     0.581630000000     0.010380000000    -0.363852   
O209     O      0.581220000000     0.990940000000     0.012560000000    -0.359281   
O210     O      0.958520000000     0.549450000000     0.009870000000    -0.365259   
O211     O      0.544990000000     0.576950000000     0.017580000000    -0.36867    
O212     O      0.995180000000     0.964260000000     0.019290000000    -0.370942   
O213     O      0.965620000000     0.542330000000     0.457830000000    -0.363488   
O214     O      0.576890000000     0.994450000000     0.461810000000    -0.36368    
O215     O      0.996820000000     0.963560000000     0.460880000000    -0.371298   
O216     O      0.544490000000     0.574940000000     0.459500000000    -0.368909   
O217     O      0.577300000000     0.542550000000     0.460930000000    -0.371157   
O218     O      0.964190000000     0.996140000000     0.459940000000    -0.3685     
O219     O      0.998620000000     0.574590000000     0.457780000000    -0.362111   
O220     O      0.544010000000     0.962040000000     0.462390000000    -0.363056   
O221     O      0.019970000000     0.020100000000     0.001040000000    -0.582069   
O222     O      0.796150000000     0.825960000000     0.212990000000    -0.373436   
O223     O      0.748710000000     0.709630000000     0.213270000000    -0.370723   
O224     O      0.833530000000     0.739550000000     0.218410000000    -0.366322   
O225     O      0.711190000000     0.795900000000     0.216130000000    -0.359908   
O226     O      0.800930000000     0.706890000000     0.219230000000    -0.365263   
O227     O      0.743650000000     0.828680000000     0.217120000000    -0.361812   
O228     O      0.716320000000     0.742370000000     0.210930000000    -0.373395   
O229     O      0.828810000000     0.793420000000     0.211670000000    -0.37254    
O230     O      0.745480000000     0.825360000000     0.267250000000    -0.36651    
O231     O      0.794600000000     0.715180000000     0.273040000000    -0.365733   
O232     O      0.828300000000     0.791920000000     0.269560000000    -0.365591   
O233     O      0.715400000000     0.744780000000     0.268900000000    -0.370325   
O234     O      0.748840000000     0.713090000000     0.270990000000    -0.367012   
O235     O      0.794430000000     0.823200000000     0.270670000000    -0.37275    
O236     O      0.712780000000     0.792800000000     0.265940000000    -0.359511   
O237     O      0.827990000000     0.746960000000     0.271120000000    -0.361652   
O238     O      0.772250000000     0.767910000000     0.228920000000    -0.585893   
O239     O      0.962640000000     0.996910000000     0.518030000000    -0.369645   
O240     O      0.576900000000     0.543660000000     0.518440000000    -0.371303   
O241     O      0.548260000000     0.958670000000     0.513050000000    -0.360367   
O242     O      0.991600000000     0.581630000000     0.510380000000    -0.364704   
O243     O      0.581220000000     0.990940000000     0.512560000000    -0.360139   
O244     O      0.958520000000     0.549450000000     0.509870000000    -0.366166   
O245     O      0.544990000000     0.576950000000     0.517580000000    -0.369479   
O246     O      0.995180000000     0.964260000000     0.519300000000    -0.371734   
O247     O      0.965620000000     0.542330000000     0.957830000000    -0.363393   
O248     O      0.576890000000     0.994450000000     0.961810000000    -0.363626   
O249     O      0.996820000000     0.963560000000     0.960880000000    -0.371199   
O250     O      0.544490000000     0.574940000000     0.959500000000    -0.368815   
O251     O      0.577300000000     0.542550000000     0.960930000000    -0.371069   
O252     O      0.964190000000     0.996140000000     0.959940000000    -0.368402   
O253     O      0.998620000000     0.574590000000     0.957780000000    -0.362034   
O254     O      0.544010000000     0.962040000000     0.962390000000    -0.363016   
O255     O      0.019970000000     0.020100000000     0.501040000000    -0.584013   
O256     O      0.796150000000     0.825960000000     0.712990000000    -0.373432   
O257     O      0.748710000000     0.709630000000     0.713270000000    -0.370692   
O258     O      0.833530000000     0.739550000000     0.718410000000    -0.366317   
O259     O      0.711190000000     0.795900000000     0.716130000000    -0.359906   
O260     O      0.800930000000     0.706890000000     0.719230000000    -0.36526    
O261     O      0.743650000000     0.828680000000     0.717120000000    -0.36181    
O262     O      0.716320000000     0.742370000000     0.710930000000    -0.373366   
O263     O      0.828810000000     0.793420000000     0.711670000000    -0.372538   
O264     O      0.745480000000     0.825360000000     0.767250000000    -0.366508   
O265     O      0.794600000000     0.715180000000     0.773040000000    -0.365729   
O266     O      0.828300000000     0.791920000000     0.769560000000    -0.365587   
O267     O      0.715400000000     0.744780000000     0.768900000000    -0.370322   
O268     O      0.748840000000     0.713090000000     0.770990000000    -0.367009   
O269     O      0.794430000000     0.823200000000     0.770670000000    -0.372747   
O270     O      0.712780000000     0.792800000000     0.765940000000    -0.359509   
O271     O      0.827990000000     0.746960000000     0.771120000000    -0.361649   
O272     O      0.772250000000     0.767910000000     0.728920000000    -0.585895   


