data_structure

_audit_creation_method RASPA-1.0
_audit_creation_date 2023-5-25
_audit_author_name 'Poobodin Mano'

_cell_length_a    47.261
_cell_length_b    50.6431
_cell_length_c    49.7376
_cell_angle_alpha 90
_cell_angle_beta  90
_cell_angle_gamma 90
_cell_volume      119044

_symmetry_cell_setting          triclinic
_symmetry_space_group_name_Hall 'P 1'
_symmetry_space_group_name_H-M  'P 1'
_symmetry_Int_Tables_number     1

_symmetry_equiv_pos_as_xyz 'x,y,z'

loop_
_atom_site_label
_atom_site_type_symbol
_atom_site_fract_x
_atom_site_fract_y
_atom_site_fract_z
_atom_site_charge
C1       C      0.484890000000     0.453360000000     0.051780000000     0.399815   
C2       C      0.486140000000     0.039540000000     0.461440000000     0.385952   
C3       C      0.482460000000     0.038760000000     0.047690000000     0.386608   
C4       C      0.483690000000     0.455430000000     0.462020000000     0.394284   
C5       C      0.057300000000     0.445230000000     0.455650000000     0.398589   
C6       C      0.055560000000     0.048160000000     0.058250000000     0.394337   
C7       C      0.058030000000     0.446690000000     0.057160000000     0.399516   
C8       C      0.068580000000     0.041510000000     0.460790000000     0.393795   
C9       C      0.326050000000     0.287950000000     0.212340000000     0.392289   
C10      C      0.322480000000     0.202250000000     0.300790000000     0.39213    
C11      C      0.322500000000     0.289850000000     0.302220000000     0.398593   
C12      C      0.322950000000     0.202720000000     0.209750000000     0.399198   
C13      C      0.249580000000     0.196550000000     0.205330000000     0.405679   
C14      C      0.250180000000     0.296590000000     0.306290000000     0.394675   
C15      C      0.251610000000     0.297570000000     0.205100000000     0.395877   
C16      C      0.242780000000     0.199210000000     0.301170000000     0.400678   
C17      C      0.197840000000     0.177050000000     0.152850000000    -0.0264153  
C18      C      0.103190000000     0.068810000000     0.113220000000    -0.0295684  
C19      C      0.074130000000     0.092850000000     0.067680000000    -0.0083329  
C20      C      0.075150000000     0.057200000000     0.103420000000    -0.00820474 
C21      C      0.122950000000     0.128810000000     0.140560000000    -0.0506052  
C22      C      0.178480000000     0.116780000000     0.125500000000    -0.0514158  
C23      C      0.127820000000     0.110000000000     0.120450000000     0.0630746  
C24      C      0.102190000000     0.103000000000     0.078930000000    -0.0293616  
C25      C      0.173610000000     0.135640000000     0.145550000000     0.0644184  
C26      C      0.199860000000     0.142660000000     0.186730000000    -0.022618   
C27      C      0.145600000000     0.141570000000     0.153080000000    -0.0544552  
C28      C      0.228280000000     0.152650000000     0.197660000000    -0.0142897  
C29      C      0.226180000000     0.188680000000     0.161710000000    -0.00600199 
C30      C      0.155840000000     0.103990000000     0.113020000000    -0.0545173  
C31      C      0.198270000000     0.175740000000     0.357630000000    -0.0256147  
C32      C      0.113520000000     0.063070000000     0.403990000000    -0.0293691  
C33      C      0.102640000000     0.078600000000     0.459490000000    -0.0082176  
C34      C      0.104310000000     0.042240000000     0.424470000000    -0.00862303 
C35      C      0.172260000000     0.103710000000     0.398200000000    -0.0522091  
C36      C      0.140250000000     0.134670000000     0.362950000000    -0.0512075  
C37      C      0.142690000000     0.101970000000     0.398730000000     0.0627734  
C38      C      0.111960000000     0.097900000000     0.437520000000    -0.029605   
C39      C      0.169830000000     0.136410000000     0.362410000000     0.0633814  
C40      C      0.201340000000     0.140950000000     0.324220000000    -0.02148    
C41      C      0.185800000000     0.120770000000     0.380240000000    -0.0550728  
C42      C      0.211170000000     0.160290000000     0.302280000000    -0.0173619  
C43      C      0.207130000000     0.196880000000     0.337400000000    -0.00816381 
C44      C      0.126700000000     0.117640000000     0.380930000000    -0.0542319  
C45      C      0.108540000000     0.427140000000     0.110680000000    -0.0260042  
C46      C      0.202010000000     0.318490000000     0.151440000000    -0.0297168  
C47      C      0.231610000000     0.341970000000     0.196990000000    -0.00791541 
C48      C      0.230090000000     0.306640000000     0.160790000000    -0.00784953 
C49      C      0.182950000000     0.378530000000     0.124170000000    -0.0523025  
C50      C      0.127250000000     0.367090000000     0.139120000000    -0.0507582  
C51      C      0.177850000000     0.359960000000     0.144460000000     0.062986   
C52      C      0.203500000000     0.352330000000     0.185960000000    -0.0297202  
C53      C      0.132350000000     0.385670000000     0.118830000000     0.0631426  
C54      C      0.106410000000     0.392200000000     0.077360000000    -0.0217107  
C55      C      0.160460000000     0.391310000000     0.111390000000    -0.0549744  
C56      C      0.078310000000     0.402490000000     0.065880000000    -0.0170451  
C57      C      0.080470000000     0.438940000000     0.101280000000    -0.00793408 
C58      C      0.149740000000     0.354270000000     0.151860000000    -0.0547124  
C59      C      0.361650000000     0.178440000000     0.150790000000    -0.0263001  
C60      C      0.438090000000     0.061090000000     0.102840000000    -0.0289274  
C61      C      0.444970000000     0.073030000000     0.045910000000    -0.00839819 
C62      C      0.445240000000     0.039090000000     0.082870000000    -0.00909414 
C63      C      0.382170000000     0.103940000000     0.111860000000    -0.0501108  
C64      C      0.419020000000     0.136480000000     0.140820000000    -0.05171    
C65      C      0.411420000000     0.101480000000     0.108070000000     0.0628713  
C66      C      0.437750000000     0.094010000000     0.066960000000    -0.0293375  
C67      C      0.389770000000     0.138970000000     0.144580000000     0.0650875  
C68      C      0.365080000000     0.145880000000     0.186620000000    -0.0225094  
C69      C      0.371340000000     0.122470000000     0.129970000000    -0.0555119  
C70      C      0.358320000000     0.166610000000     0.208250000000    -0.0151345  
C71      C      0.355450000000     0.200650000000     0.170770000000    -0.00555125 
C72      C      0.429840000000     0.117890000000     0.122780000000    -0.05382    
C73      C      0.359430000000     0.316540000000     0.361330000000    -0.0236227  
C74      C      0.441850000000     0.432490000000     0.404800000000    -0.0307716  
C75      C      0.444720000000     0.422710000000     0.462420000000    -0.00833601 
C76      C      0.449540000000     0.454950000000     0.424120000000    -0.00385163 
C77      C      0.383470000000     0.392090000000     0.395940000000    -0.0503151  
C78      C      0.419200000000     0.356170000000     0.370010000000    -0.0494997  
C79      C      0.412720000000     0.393430000000     0.400250000000     0.0644842  
C80      C      0.437720000000     0.401250000000     0.441920000000    -0.0275253  
C81      C      0.389940000000     0.354720000000     0.365820000000     0.0684045  
C82      C      0.366310000000     0.346350000000     0.323590000000    -0.0201502  
C83      C      0.372090000000     0.372970000000     0.378820000000    -0.0556759  
C84      C      0.359320000000     0.324610000000     0.303120000000    -0.0134258  
C85      C      0.352730000000     0.293340000000     0.342720000000    -0.0109295  
C86      C      0.430600000000     0.375350000000     0.387040000000    -0.0520411  
C87      C      0.364320000000     0.145250000000     0.322940000000    -0.0234676  
C88      C      0.441260000000     0.094510000000     0.440070000000    -0.0296102  
C89      C      0.450670000000     0.039660000000     0.424750000000    -0.00868953 
C90      C      0.449080000000     0.074080000000     0.461420000000    -0.00812951 
C91      C      0.385080000000     0.103100000000     0.396540000000    -0.0506989  
C92      C      0.420630000000     0.135750000000     0.366260000000    -0.050855   
C93      C      0.414470000000     0.100780000000     0.399270000000     0.0626985  
C94      C      0.442730000000     0.061270000000     0.404630000000    -0.0293624  
C95      C      0.391250000000     0.138090000000     0.363570000000     0.0688817  
C96      C      0.363370000000     0.177940000000     0.358770000000    -0.018255   
C97      C      0.373470000000     0.121580000000     0.378840000000    -0.0567207  
C98      C      0.356050000000     0.200270000000     0.339060000000    -0.020021   
C99      C      0.357600000000     0.166060000000     0.301650000000    -0.0114455  
C100     C      0.432240000000     0.117270000000     0.383930000000    -0.0519445  
C101     C      0.106470000000     0.391250000000     0.436510000000    -0.0252542  
C102     C      0.200310000000     0.350060000000     0.325730000000    -0.0300075  
C103     C      0.229200000000     0.305530000000     0.350800000000    -0.00763516 
C104     C      0.228370000000     0.340310000000     0.313960000000    -0.00772498 
C105     C      0.181230000000     0.377150000000     0.387290000000    -0.0513193  
C106     C      0.125380000000     0.363480000000     0.375000000000    -0.0505445  
C107     C      0.175950000000     0.357770000000     0.367840000000     0.0626272  
C108     C      0.201060000000     0.316740000000     0.360760000000    -0.0298249  
C109     C      0.130670000000     0.382860000000     0.394460000000     0.0670023  
C110     C      0.105590000000     0.423960000000     0.400890000000    -0.0190193  
C111     C      0.158850000000     0.389660000000     0.400520000000    -0.0565135  
C112     C      0.077580000000     0.435720000000     0.410890000000    -0.013409   
C113     C      0.078500000000     0.401190000000     0.448290000000    -0.0074048  
C114     C      0.147760000000     0.350970000000     0.361760000000    -0.0533335  
C115     C      0.446290000000     0.428200000000     0.110170000000    -0.0268541  
C116     C      0.368050000000     0.310860000000     0.155670000000    -0.0288732  
C117     C      0.364560000000     0.321200000000     0.213150000000    -0.00800916 
C118     C      0.361150000000     0.288430000000     0.175250000000    -0.00869184 
C119     C      0.425000000000     0.352630000000     0.146200000000    -0.0492492  
C120     C      0.388140000000     0.387130000000     0.119710000000    -0.0513601  
C121     C      0.395830000000     0.350660000000     0.150680000000     0.0643415  
C122     C      0.371060000000     0.342640000000     0.192460000000    -0.0281951  
C123     C      0.417320000000     0.389160000000     0.115300000000     0.065212   
C124     C      0.440940000000     0.397270000000     0.073000000000    -0.0228728  
C125     C      0.435750000000     0.371660000000     0.128620000000    -0.0546481  
C126     C      0.447850000000     0.418720000000     0.052200000000    -0.0142985  
C127     C      0.452780000000     0.451010000000     0.091010000000    -0.00470691 
C128     C      0.377390000000     0.368040000000     0.137210000000    -0.0542556  
C129     C      0.484890000000     0.453360000000     0.551780000000     0.399818   
C130     C      0.486140000000     0.039540000000     0.961440000000     0.386099   
C131     C      0.482460000000     0.038760000000     0.547690000000     0.386615   
C132     C      0.483690000000     0.455430000000     0.962020000000     0.394274   
C133     C      0.057300000000     0.445230000000     0.955650000000     0.398516   
C134     C      0.055560000000     0.048160000000     0.558250000000     0.394351   
C135     C      0.058030000000     0.446690000000     0.557160000000     0.399529   
C136     C      0.068580000000     0.041510000000     0.960790000000     0.393785   
C137     C      0.326050000000     0.287950000000     0.712340000000     0.392121   
C138     C      0.322480000000     0.202250000000     0.800790000000     0.39213    
C139     C      0.322500000000     0.289850000000     0.802220000000     0.398593   
C140     C      0.322950000000     0.202720000000     0.709750000000     0.399194   
C141     C      0.249580000000     0.196550000000     0.705330000000     0.405599   
C142     C      0.250180000000     0.296590000000     0.806290000000     0.394671   
C143     C      0.251610000000     0.297570000000     0.705100000000     0.395877   
C144     C      0.242780000000     0.199210000000     0.801170000000     0.40068    
C145     C      0.197840000000     0.177050000000     0.652850000000    -0.026386   
C146     C      0.103190000000     0.068810000000     0.613220000000    -0.0295694  
C147     C      0.074130000000     0.092850000000     0.567680000000    -0.00829959 
C148     C      0.075150000000     0.057200000000     0.603420000000    -0.00820065 
C149     C      0.122950000000     0.128810000000     0.640560000000    -0.0506196  
C150     C      0.178480000000     0.116780000000     0.625500000000    -0.051413   
C151     C      0.127810000000     0.110000000000     0.620450000000     0.063097   
C152     C      0.102190000000     0.103000000000     0.578930000000    -0.0293696  
C153     C      0.173610000000     0.135640000000     0.645550000000     0.0644214  
C154     C      0.199860000000     0.142660000000     0.686730000000    -0.0226042  
C155     C      0.145600000000     0.141570000000     0.653080000000    -0.0544449  
C156     C      0.228280000000     0.152650000000     0.697660000000    -0.0143371  
C157     C      0.226180000000     0.188680000000     0.661710000000    -0.00596735 
C158     C      0.155840000000     0.103990000000     0.613020000000    -0.0544957  
C159     C      0.198280000000     0.175740000000     0.857630000000    -0.0256432  
C160     C      0.113520000000     0.063070000000     0.903990000000    -0.0293103  
C161     C      0.102640000000     0.078600000000     0.959490000000    -0.00822496 
C162     C      0.104310000000     0.042240000000     0.924470000000    -0.00864649 
C163     C      0.172260000000     0.103710000000     0.898190000000    -0.0521772  
C164     C      0.140250000000     0.134670000000     0.862950000000    -0.051198   
C165     C      0.142690000000     0.101970000000     0.898730000000     0.0628016  
C166     C      0.111960000000     0.097900000000     0.937520000000    -0.0296151  
C167     C      0.169830000000     0.136410000000     0.862410000000     0.0633744  
C168     C      0.201340000000     0.140950000000     0.824210000000    -0.0215249  
C169     C      0.185810000000     0.120770000000     0.880240000000    -0.0550595  
C170     C      0.211170000000     0.160290000000     0.802280000000    -0.0173398  
C171     C      0.207140000000     0.196880000000     0.837400000000    -0.00810868 
C172     C      0.126700000000     0.117640000000     0.880930000000    -0.0542404  
C173     C      0.108540000000     0.427140000000     0.610680000000    -0.0260086  
C174     C      0.202010000000     0.318490000000     0.651440000000    -0.0297548  
C175     C      0.231610000000     0.341970000000     0.696990000000    -0.00789502 
C176     C      0.230090000000     0.306640000000     0.660800000000    -0.00773099 
C177     C      0.182950000000     0.378530000000     0.624170000000    -0.0523067  
C178     C      0.127250000000     0.367090000000     0.639120000000    -0.0507478  
C179     C      0.177850000000     0.359960000000     0.644460000000     0.0630203  
C180     C      0.203500000000     0.352330000000     0.685960000000    -0.0297805  
C181     C      0.132350000000     0.385670000000     0.618830000000     0.0631401  
C182     C      0.106410000000     0.392200000000     0.577360000000    -0.0217434  
C183     C      0.160460000000     0.391310000000     0.611390000000    -0.0549625  
C184     C      0.078310000000     0.402490000000     0.565880000000    -0.0170338  
C185     C      0.080470000000     0.438940000000     0.601280000000    -0.00793    
C186     C      0.149740000000     0.354270000000     0.651860000000    -0.0547263  
C187     C      0.361650000000     0.178440000000     0.650790000000    -0.0263024  
C188     C      0.438090000000     0.061090000000     0.602840000000    -0.0289261  
C189     C      0.444970000000     0.073030000000     0.545910000000    -0.00840819 
C190     C      0.445240000000     0.039090000000     0.582870000000    -0.00909605 
C191     C      0.382170000000     0.103940000000     0.611860000000    -0.0500641  
C192     C      0.419020000000     0.136480000000     0.640820000000    -0.0517119  
C193     C      0.411420000000     0.101480000000     0.608070000000     0.0628617  
C194     C      0.437750000000     0.094010000000     0.566960000000    -0.0293319  
C195     C      0.389770000000     0.138970000000     0.644580000000     0.065097   
C196     C      0.365080000000     0.145880000000     0.686620000000    -0.0225104  
C197     C      0.371340000000     0.122470000000     0.629970000000    -0.0555224  
C198     C      0.358320000000     0.166610000000     0.708250000000    -0.015135   
C199     C      0.355450000000     0.200650000000     0.670770000000    -0.0055514  
C200     C      0.429840000000     0.117890000000     0.622780000000    -0.0538093  
C201     C      0.359430000000     0.316540000000     0.861330000000    -0.0236255  
C202     C      0.441850000000     0.432490000000     0.904800000000    -0.0307665  
C203     C      0.444720000000     0.422710000000     0.962420000000    -0.00834974 
C204     C      0.449540000000     0.454950000000     0.924120000000    -0.00385323 
C205     C      0.383470000000     0.392090000000     0.895940000000    -0.0503048  
C206     C      0.419200000000     0.356170000000     0.870000000000    -0.0495438  
C207     C      0.412720000000     0.393430000000     0.900260000000     0.0645024  
C208     C      0.437720000000     0.401250000000     0.941920000000    -0.027517   
C209     C      0.389940000000     0.354720000000     0.865820000000     0.0684342  
C210     C      0.366310000000     0.346350000000     0.823590000000    -0.0201479  
C211     C      0.372090000000     0.372970000000     0.878820000000    -0.0556775  
C212     C      0.359320000000     0.324610000000     0.803120000000    -0.0134369  
C213     C      0.352730000000     0.293340000000     0.842720000000    -0.0109287  
C214     C      0.430600000000     0.375350000000     0.887040000000    -0.0520203  
C215     C      0.364320000000     0.145250000000     0.822940000000    -0.023451   
C216     C      0.441260000000     0.094510000000     0.940070000000    -0.0296748  
C217     C      0.450670000000     0.039660000000     0.924760000000    -0.00860656 
C218     C      0.449080000000     0.074080000000     0.961420000000    -0.00811107 
C219     C      0.385080000000     0.103100000000     0.896540000000    -0.0507155  
C220     C      0.420630000000     0.135750000000     0.866260000000    -0.0508389  
C221     C      0.414470000000     0.100780000000     0.899270000000     0.0627514  
C222     C      0.442730000000     0.061270000000     0.904630000000    -0.0293702  
C223     C      0.391250000000     0.138090000000     0.863570000000     0.0688758  
C224     C      0.363370000000     0.177940000000     0.858770000000    -0.018297   
C225     C      0.373470000000     0.121580000000     0.878840000000    -0.0567011  
C226     C      0.356050000000     0.200270000000     0.839050000000    -0.0199432  
C227     C      0.357610000000     0.166060000000     0.801650000000    -0.0114913  
C228     C      0.432240000000     0.117270000000     0.883930000000    -0.0519636  
C229     C      0.106470000000     0.391250000000     0.936510000000    -0.0253054  
C230     C      0.200310000000     0.350060000000     0.825730000000    -0.0300075  
C231     C      0.229200000000     0.305530000000     0.850800000000    -0.00765847 
C232     C      0.228370000000     0.340310000000     0.813960000000    -0.00772622 
C233     C      0.181230000000     0.377150000000     0.887290000000    -0.0513022  
C234     C      0.125380000000     0.363480000000     0.875000000000    -0.0505532  
C235     C      0.175950000000     0.357770000000     0.867840000000     0.0626264  
C236     C      0.201060000000     0.316740000000     0.860760000000    -0.0298177  
C237     C      0.130670000000     0.382860000000     0.894460000000     0.0670382  
C238     C      0.105590000000     0.423960000000     0.900880000000    -0.0190104  
C239     C      0.158850000000     0.389660000000     0.900520000000    -0.0565222  
C240     C      0.077580000000     0.435720000000     0.910890000000    -0.0134108  
C241     C      0.078500000000     0.401190000000     0.948290000000    -0.00739205 
C242     C      0.147760000000     0.350970000000     0.861760000000    -0.0533236  
C243     C      0.446290000000     0.428200000000     0.610170000000    -0.0268516  
C244     C      0.368050000000     0.310860000000     0.655670000000    -0.0288704  
C245     C      0.364570000000     0.321200000000     0.713150000000    -0.00808069 
C246     C      0.361150000000     0.288430000000     0.675250000000    -0.00870083 
C247     C      0.425000000000     0.352630000000     0.646200000000    -0.0492481  
C248     C      0.388140000000     0.387130000000     0.619710000000    -0.05136    
C249     C      0.395830000000     0.350660000000     0.650680000000     0.064343   
C250     C      0.371060000000     0.342640000000     0.692460000000    -0.0281453  
C251     C      0.417320000000     0.389160000000     0.615290000000     0.0652285  
C252     C      0.440940000000     0.397270000000     0.573000000000    -0.0228832  
C253     C      0.435750000000     0.371660000000     0.628620000000    -0.0546393  
C254     C      0.447850000000     0.418720000000     0.552200000000    -0.0142778  
C255     C      0.452780000000     0.451010000000     0.591010000000    -0.00470935 
C256     C      0.377390000000     0.368040000000     0.637210000000    -0.0542486  
C257     C      0.484890000000     0.953360000000     0.051780000000     0.399797   
C258     C      0.486140000000     0.539540000000     0.461440000000     0.38598    
C259     C      0.482460000000     0.538760000000     0.047690000000     0.386619   
C260     C      0.483690000000     0.955430000000     0.462020000000     0.394437   
C261     C      0.057300000000     0.945230000000     0.455650000000     0.3984     
C262     C      0.055560000000     0.548160000000     0.058250000000     0.394352   
C263     C      0.058030000000     0.946690000000     0.057160000000     0.39974    
C264     C      0.068570000000     0.541510000000     0.460790000000     0.393905   
C265     C      0.326050000000     0.787950000000     0.212340000000     0.392289   
C266     C      0.322480000000     0.702250000000     0.300790000000     0.392132   
C267     C      0.322500000000     0.789850000000     0.302220000000     0.398593   
C268     C      0.322950000000     0.702720000000     0.209750000000     0.399201   
C269     C      0.249580000000     0.696550000000     0.205330000000     0.405604   
C270     C      0.250180000000     0.796590000000     0.306290000000     0.394676   
C271     C      0.251610000000     0.797570000000     0.205100000000     0.395878   
C272     C      0.242780000000     0.699210000000     0.301160000000     0.400741   
C273     C      0.197840000000     0.677050000000     0.152850000000    -0.0264329  
C274     C      0.103190000000     0.568810000000     0.113220000000    -0.0295684  
C275     C      0.074130000000     0.592850000000     0.067680000000    -0.00833649 
C276     C      0.075150000000     0.557200000000     0.103420000000    -0.0082011  
C277     C      0.122950000000     0.628810000000     0.140560000000    -0.0506076  
C278     C      0.178480000000     0.616780000000     0.125500000000    -0.0514246  
C279     C      0.127820000000     0.610000000000     0.120450000000     0.0630687  
C280     C      0.102190000000     0.603000000000     0.078930000000    -0.0293588  
C281     C      0.173610000000     0.635640000000     0.145550000000     0.0644162  
C282     C      0.199860000000     0.642660000000     0.186730000000    -0.0226017  
C283     C      0.145600000000     0.641570000000     0.153080000000    -0.0544588  
C284     C      0.228280000000     0.652650000000     0.197660000000    -0.0143304  
C285     C      0.226180000000     0.688680000000     0.161710000000    -0.00594833 
C286     C      0.155840000000     0.603990000000     0.113020000000    -0.0545224  
C287     C      0.198270000000     0.675740000000     0.357630000000    -0.0256138  
C288     C      0.113510000000     0.563070000000     0.403990000000    -0.0294372  
C289     C      0.102640000000     0.578600000000     0.459490000000    -0.00822354 
C290     C      0.104300000000     0.542240000000     0.424470000000    -0.00855613 
C291     C      0.172260000000     0.603710000000     0.398190000000    -0.0521545  
C292     C      0.140250000000     0.634670000000     0.362950000000    -0.0512234  
C293     C      0.142690000000     0.601970000000     0.398730000000     0.0627336  
C294     C      0.111960000000     0.597900000000     0.437520000000    -0.0296074  
C295     C      0.169830000000     0.636410000000     0.362410000000     0.0633889  
C296     C      0.201340000000     0.640950000000     0.324220000000    -0.0214709  
C297     C      0.185800000000     0.620770000000     0.380240000000    -0.0550992  
C298     C      0.211170000000     0.660290000000     0.302280000000    -0.0173777  
C299     C      0.207130000000     0.696880000000     0.337400000000    -0.00816142 
C300     C      0.126700000000     0.617640000000     0.380930000000    -0.0542174  
C301     C      0.108540000000     0.927130000000     0.110680000000    -0.0259209  
C302     C      0.202010000000     0.818490000000     0.151440000000    -0.0297705  
C303     C      0.231610000000     0.841970000000     0.196990000000    -0.00792867 
C304     C      0.230090000000     0.806640000000     0.160790000000    -0.00783219 
C305     C      0.182950000000     0.878530000000     0.124170000000    -0.0523535  
C306     C      0.127250000000     0.867090000000     0.139120000000    -0.0507395  
C307     C      0.177860000000     0.859960000000     0.144460000000     0.0630557  
C308     C      0.203500000000     0.852330000000     0.185960000000    -0.0296829  
C309     C      0.132350000000     0.885670000000     0.118830000000     0.0631221  
C310     C      0.106420000000     0.892200000000     0.077360000000    -0.0217577  
C311     C      0.160460000000     0.891310000000     0.111390000000    -0.054957   
C312     C      0.078310000000     0.902490000000     0.065880000000    -0.0170333  
C313     C      0.080470000000     0.938940000000     0.101280000000    -0.0079598  
C314     C      0.149740000000     0.854260000000     0.151860000000    -0.0547706  
C315     C      0.361650000000     0.678440000000     0.150790000000    -0.0262987  
C316     C      0.438090000000     0.561090000000     0.102840000000    -0.0289348  
C317     C      0.444970000000     0.573030000000     0.045910000000    -0.00840305 
C318     C      0.445240000000     0.539090000000     0.082870000000    -0.00908113 
C319     C      0.382170000000     0.603940000000     0.111860000000    -0.0501141  
C320     C      0.419020000000     0.636480000000     0.140820000000    -0.0517155  
C321     C      0.411420000000     0.601480000000     0.108070000000     0.0628578  
C322     C      0.437750000000     0.594010000000     0.066960000000    -0.0293389  
C323     C      0.389770000000     0.638970000000     0.144580000000     0.0650873  
C324     C      0.365080000000     0.645880000000     0.186620000000    -0.0225103  
C325     C      0.371340000000     0.622470000000     0.129970000000    -0.0555213  
C326     C      0.358320000000     0.666610000000     0.208250000000    -0.0151185  
C327     C      0.355450000000     0.700650000000     0.170770000000    -0.00555011 
C328     C      0.429840000000     0.617890000000     0.122780000000    -0.0538145  
C329     C      0.359430000000     0.816540000000     0.361330000000    -0.0236191  
C330     C      0.441850000000     0.932490000000     0.404800000000    -0.0308261  
C331     C      0.444720000000     0.922710000000     0.462420000000    -0.00832274 
C332     C      0.449540000000     0.954940000000     0.424120000000    -0.00371735 
C333     C      0.383470000000     0.892090000000     0.395940000000    -0.0503053  
C334     C      0.419200000000     0.856170000000     0.370010000000    -0.0495856  
C335     C      0.412720000000     0.893430000000     0.400260000000     0.0644635  
C336     C      0.437720000000     0.901250000000     0.441920000000    -0.0275351  
C337     C      0.389940000000     0.854720000000     0.365820000000     0.0684393  
C338     C      0.366310000000     0.846350000000     0.323590000000    -0.0201399  
C339     C      0.372090000000     0.872970000000     0.378820000000    -0.0557013  
C340     C      0.359320000000     0.824610000000     0.303120000000    -0.0134467  
C341     C      0.352730000000     0.793340000000     0.342720000000    -0.0109316  
C342     C      0.430590000000     0.875350000000     0.387040000000    -0.0519506  
C343     C      0.364320000000     0.645250000000     0.322930000000    -0.0235234  
C344     C      0.441260000000     0.594510000000     0.440070000000    -0.0296122  
C345     C      0.450670000000     0.539660000000     0.424750000000    -0.00867522 
C346     C      0.449080000000     0.574080000000     0.461420000000    -0.00812745 
C347     C      0.385080000000     0.603100000000     0.396540000000    -0.0507088  
C348     C      0.420630000000     0.635750000000     0.366260000000    -0.0508449  
C349     C      0.414470000000     0.600780000000     0.399270000000     0.062692   
C350     C      0.442730000000     0.561270000000     0.404630000000    -0.0293704  
C351     C      0.391250000000     0.638090000000     0.363570000000     0.0688457  
C352     C      0.363370000000     0.677940000000     0.358770000000    -0.0182527  
C353     C      0.373470000000     0.621570000000     0.378840000000    -0.0566898  
C354     C      0.356050000000     0.700270000000     0.339060000000    -0.0200449  
C355     C      0.357600000000     0.666060000000     0.301650000000    -0.0114157  
C356     C      0.432240000000     0.617270000000     0.383930000000    -0.0519536  
C357     C      0.106470000000     0.891250000000     0.436510000000    -0.0252464  
C358     C      0.200310000000     0.850060000000     0.325730000000    -0.0300069  
C359     C      0.229200000000     0.805530000000     0.350800000000    -0.0076344  
C360     C      0.228370000000     0.840310000000     0.313960000000    -0.00772394 
C361     C      0.181230000000     0.877150000000     0.387290000000    -0.0513278  
C362     C      0.125380000000     0.863480000000     0.375000000000    -0.0505464  
C363     C      0.175950000000     0.857770000000     0.367840000000     0.0626239  
C364     C      0.201060000000     0.816740000000     0.360760000000    -0.0298247  
C365     C      0.130670000000     0.882860000000     0.394460000000     0.0669981  
C366     C      0.105590000000     0.923960000000     0.400890000000    -0.0190101  
C367     C      0.158850000000     0.889660000000     0.400520000000    -0.056519   
C368     C      0.077580000000     0.935720000000     0.410890000000    -0.0134188  
C369     C      0.078500000000     0.901190000000     0.448290000000    -0.00741305 
C370     C      0.147760000000     0.850970000000     0.361760000000    -0.0533359  
C371     C      0.446290000000     0.928200000000     0.110170000000    -0.0268385  
C372     C      0.368050000000     0.810860000000     0.155670000000    -0.0288712  
C373     C      0.364560000000     0.821200000000     0.213150000000    -0.00802421 
C374     C      0.361150000000     0.788430000000     0.175250000000    -0.00869255 
C375     C      0.425000000000     0.852630000000     0.146200000000    -0.0492511  
C376     C      0.388140000000     0.887130000000     0.119710000000    -0.0513648  
C377     C      0.395830000000     0.850660000000     0.150680000000     0.0643375  
C378     C      0.371060000000     0.842640000000     0.192460000000    -0.0281473  
C379     C      0.417320000000     0.889160000000     0.115300000000     0.0652061  
C380     C      0.440940000000     0.897270000000     0.073000000000    -0.0228698  
C381     C      0.435750000000     0.871660000000     0.128620000000    -0.05465    
C382     C      0.447850000000     0.918720000000     0.052200000000    -0.014302   
C383     C      0.452780000000     0.951010000000     0.091010000000    -0.00477348 
C384     C      0.377390000000     0.868040000000     0.137210000000    -0.054258   
C385     C      0.484890000000     0.953360000000     0.551780000000     0.399801   
C386     C      0.486140000000     0.539540000000     0.961440000000     0.386124   
C387     C      0.482460000000     0.538760000000     0.547690000000     0.386625   
C388     C      0.483690000000     0.955430000000     0.962020000000     0.394427   
C389     C      0.057310000000     0.945230000000     0.955650000000     0.398548   
C390     C      0.055560000000     0.548160000000     0.558250000000     0.394365   
C391     C      0.058030000000     0.946690000000     0.557160000000     0.399752   
C392     C      0.068580000000     0.541510000000     0.960790000000     0.393812   
C393     C      0.326050000000     0.787950000000     0.712340000000     0.392123   
C394     C      0.322480000000     0.702250000000     0.800790000000     0.39213    
C395     C      0.322500000000     0.789850000000     0.802220000000     0.398593   
C396     C      0.322950000000     0.702720000000     0.709750000000     0.399196   
C397     C      0.249580000000     0.696550000000     0.705330000000     0.405601   
C398     C      0.250180000000     0.796590000000     0.806290000000     0.394673   
C399     C      0.251610000000     0.797570000000     0.705100000000     0.395878   
C400     C      0.242780000000     0.699210000000     0.801170000000     0.400681   
C401     C      0.197840000000     0.677050000000     0.652850000000    -0.0263851  
C402     C      0.103190000000     0.568810000000     0.613220000000    -0.0295717  
C403     C      0.074130000000     0.592850000000     0.567680000000    -0.00830268 
C404     C      0.075150000000     0.557200000000     0.603420000000    -0.00819646 
C405     C      0.122950000000     0.628810000000     0.640560000000    -0.0506052  
C406     C      0.178480000000     0.616780000000     0.625500000000    -0.0514172  
C407     C      0.127820000000     0.610000000000     0.620450000000     0.0630736  
C408     C      0.102190000000     0.603000000000     0.578930000000    -0.0293692  
C409     C      0.173610000000     0.635640000000     0.645550000000     0.06442    
C410     C      0.199860000000     0.642660000000     0.686730000000    -0.022601   
C411     C      0.145600000000     0.641570000000     0.653080000000    -0.0544565  
C412     C      0.228280000000     0.652650000000     0.697660000000    -0.0143375  
C413     C      0.226180000000     0.688680000000     0.661710000000    -0.00596629 
C414     C      0.155840000000     0.603990000000     0.613020000000    -0.0545171  
C415     C      0.198280000000     0.675740000000     0.857630000000    -0.025641   
C416     C      0.113520000000     0.563070000000     0.903990000000    -0.0293398  
C417     C      0.102640000000     0.578600000000     0.959490000000    -0.00822242 
C418     C      0.104310000000     0.542240000000     0.924470000000    -0.00862671 
C419     C      0.172260000000     0.603710000000     0.898190000000    -0.0521648  
C420     C      0.140250000000     0.634670000000     0.862950000000    -0.0512514  
C421     C      0.142690000000     0.601970000000     0.898730000000     0.0627815  
C422     C      0.111960000000     0.597900000000     0.937520000000    -0.0296177  
C423     C      0.169830000000     0.636410000000     0.862410000000     0.0634013  
C424     C      0.201340000000     0.640950000000     0.824210000000    -0.0215208  
C425     C      0.185800000000     0.620770000000     0.880240000000    -0.0550873  
C426     C      0.211170000000     0.660290000000     0.802280000000    -0.0173412  
C427     C      0.207140000000     0.696880000000     0.837400000000    -0.00810859 
C428     C      0.126700000000     0.617640000000     0.880930000000    -0.0542189  
C429     C      0.108540000000     0.927130000000     0.610680000000    -0.0259243  
C430     C      0.202010000000     0.818490000000     0.651440000000    -0.0298086  
C431     C      0.231610000000     0.841970000000     0.696990000000    -0.00790822 
C432     C      0.230090000000     0.806640000000     0.660800000000    -0.00771359 
C433     C      0.182950000000     0.878530000000     0.624170000000    -0.0523575  
C434     C      0.127250000000     0.867090000000     0.639120000000    -0.0507292  
C435     C      0.177860000000     0.859960000000     0.644460000000     0.06309    
C436     C      0.203500000000     0.852330000000     0.685960000000    -0.0297431  
C437     C      0.132350000000     0.885670000000     0.618830000000     0.0631197  
C438     C      0.106410000000     0.892200000000     0.577360000000    -0.021743   
C439     C      0.160460000000     0.891310000000     0.611390000000    -0.0549457  
C440     C      0.078310000000     0.902490000000     0.565880000000    -0.0170327  
C441     C      0.080470000000     0.938940000000     0.601280000000    -0.00795672 
C442     C      0.149740000000     0.854260000000     0.651860000000    -0.0547844  
C443     C      0.361650000000     0.678440000000     0.650790000000    -0.0263009  
C444     C      0.438090000000     0.561090000000     0.602840000000    -0.0289335  
C445     C      0.444970000000     0.573030000000     0.545910000000    -0.00841311 
C446     C      0.445240000000     0.539090000000     0.582870000000    -0.00908307 
C447     C      0.382170000000     0.603940000000     0.611860000000    -0.0500676  
C448     C      0.419020000000     0.636480000000     0.640820000000    -0.0517178  
C449     C      0.411420000000     0.601480000000     0.608070000000     0.0628481  
C450     C      0.437750000000     0.594010000000     0.566960000000    -0.0293333  
C451     C      0.389770000000     0.638970000000     0.644580000000     0.0650965  
C452     C      0.365080000000     0.645880000000     0.686620000000    -0.0225115  
C453     C      0.371340000000     0.622470000000     0.629970000000    -0.0555318  
C454     C      0.358320000000     0.666610000000     0.708250000000    -0.0151237  
C455     C      0.355450000000     0.700650000000     0.670770000000    -0.00555061 
C456     C      0.429840000000     0.617890000000     0.622780000000    -0.0538039  
C457     C      0.359430000000     0.816540000000     0.861330000000    -0.0236219  
C458     C      0.441850000000     0.932490000000     0.904800000000    -0.0308248  
C459     C      0.444720000000     0.922710000000     0.962420000000    -0.00833681 
C460     C      0.449540000000     0.954940000000     0.924120000000    -0.00371806 
C461     C      0.383470000000     0.892090000000     0.895940000000    -0.0502897  
C462     C      0.419200000000     0.856170000000     0.870000000000    -0.0496293  
C463     C      0.412720000000     0.893430000000     0.900260000000     0.0644665  
C464     C      0.437720000000     0.901250000000     0.941920000000    -0.0275264  
C465     C      0.389940000000     0.854720000000     0.865820000000     0.0684697  
C466     C      0.366310000000     0.846350000000     0.823590000000    -0.0201376  
C467     C      0.372090000000     0.872970000000     0.878820000000    -0.0557063  
C468     C      0.359320000000     0.824610000000     0.803120000000    -0.0134579  
C469     C      0.352730000000     0.793340000000     0.842720000000    -0.0109307  
C470     C      0.430590000000     0.875350000000     0.887040000000    -0.0519345  
C471     C      0.364320000000     0.645250000000     0.822940000000    -0.0234468  
C472     C      0.441260000000     0.594510000000     0.940070000000    -0.0296366  
C473     C      0.450670000000     0.539660000000     0.924760000000    -0.00857941 
C474     C      0.449080000000     0.574080000000     0.961420000000    -0.00812025 
C475     C      0.385080000000     0.603100000000     0.896540000000    -0.0507019  
C476     C      0.420630000000     0.635750000000     0.866260000000    -0.0508403  
C477     C      0.414470000000     0.600780000000     0.899270000000     0.062698   
C478     C      0.442730000000     0.561270000000     0.904630000000    -0.0294119  
C479     C      0.391250000000     0.638090000000     0.863570000000     0.0688488  
C480     C      0.363370000000     0.677940000000     0.858770000000    -0.0182936  
C481     C      0.373470000000     0.621570000000     0.878840000000    -0.0566823  
C482     C      0.356050000000     0.700270000000     0.839050000000    -0.0199689  
C483     C      0.357610000000     0.666060000000     0.801650000000    -0.011495   
C484     C      0.432240000000     0.617270000000     0.883930000000    -0.0519511  
C485     C      0.106470000000     0.891250000000     0.936510000000    -0.0253069  
C486     C      0.200310000000     0.850060000000     0.825730000000    -0.0300069  
C487     C      0.229200000000     0.805530000000     0.850800000000    -0.00765755 
C488     C      0.228370000000     0.840310000000     0.813960000000    -0.0077251  
C489     C      0.181230000000     0.877150000000     0.887290000000    -0.0513081  
C490     C      0.125380000000     0.863480000000     0.875000000000    -0.0505397  
C491     C      0.175950000000     0.857770000000     0.867840000000     0.0626236  
C492     C      0.201060000000     0.816740000000     0.860760000000    -0.0298174  
C493     C      0.130670000000     0.882860000000     0.894460000000     0.0669981  
C494     C      0.105590000000     0.923960000000     0.900880000000    -0.0190136  
C495     C      0.158860000000     0.889660000000     0.900520000000    -0.0564988  
C496     C      0.077580000000     0.935720000000     0.910890000000    -0.0133958  
C497     C      0.078500000000     0.901190000000     0.948290000000    -0.00738599 
C498     C      0.147760000000     0.850970000000     0.861760000000    -0.0533331  
C499     C      0.446290000000     0.928200000000     0.610170000000    -0.0268389  
C500     C      0.368050000000     0.810860000000     0.655670000000    -0.0288763  
C501     C      0.364570000000     0.821200000000     0.713150000000    -0.00809404 
C502     C      0.361150000000     0.788430000000     0.675250000000    -0.00866921 
C503     C      0.425000000000     0.852630000000     0.646200000000    -0.0492486  
C504     C      0.388140000000     0.887130000000     0.619710000000    -0.0513607  
C505     C      0.395830000000     0.850660000000     0.650680000000     0.064339   
C506     C      0.371060000000     0.842640000000     0.692460000000    -0.0280979  
C507     C      0.417320000000     0.889160000000     0.615300000000     0.0652095  
C508     C      0.440940000000     0.897270000000     0.573000000000    -0.0228723  
C509     C      0.435750000000     0.871660000000     0.628620000000    -0.0546475  
C510     C      0.447850000000     0.918720000000     0.552200000000    -0.0143022  
C511     C      0.452780000000     0.951010000000     0.591010000000    -0.00477559 
C512     C      0.377390000000     0.868040000000     0.637210000000    -0.0542535  
C513     C      0.984890000000     0.453360000000     0.051780000000     0.3997     
C514     C      0.986140000000     0.039540000000     0.461440000000     0.385807   
C515     C      0.982460000000     0.038760000000     0.047690000000     0.386476   
C516     C      0.983690000000     0.455430000000     0.462020000000     0.394171   
C517     C      0.557310000000     0.445230000000     0.455650000000     0.398597   
C518     C      0.555560000000     0.048160000000     0.058250000000     0.394515   
C519     C      0.558030000000     0.446690000000     0.057160000000     0.399667   
C520     C      0.568570000000     0.041510000000     0.460790000000     0.394343   
C521     C      0.826050000000     0.287950000000     0.212340000000     0.392295   
C522     C      0.822470000000     0.202240000000     0.300790000000     0.392216   
C523     C      0.822500000000     0.289850000000     0.302220000000     0.398576   
C524     C      0.822950000000     0.202720000000     0.209750000000     0.399194   
C525     C      0.749580000000     0.196550000000     0.205330000000     0.405602   
C526     C      0.750180000000     0.296590000000     0.306290000000     0.394739   
C527     C      0.751610000000     0.297570000000     0.205100000000     0.395895   
C528     C      0.742780000000     0.199210000000     0.301160000000     0.400735   
C529     C      0.697840000000     0.177050000000     0.152850000000    -0.0264074  
C530     C      0.603190000000     0.068810000000     0.113220000000    -0.0295449  
C531     C      0.574130000000     0.092850000000     0.067680000000    -0.00832255 
C532     C      0.575150000000     0.057200000000     0.103420000000    -0.00822488 
C533     C      0.622940000000     0.128810000000     0.140560000000    -0.0506553  
C534     C      0.678480000000     0.116780000000     0.125500000000    -0.0513917  
C535     C      0.627820000000     0.110000000000     0.120450000000     0.0631507  
C536     C      0.602190000000     0.103000000000     0.078930000000    -0.029345   
C537     C      0.673610000000     0.135640000000     0.145550000000     0.0644088  
C538     C      0.699860000000     0.142660000000     0.186730000000    -0.0226183  
C539     C      0.645600000000     0.141570000000     0.153080000000    -0.0543902  
C540     C      0.728280000000     0.152650000000     0.197660000000    -0.0143079  
C541     C      0.726180000000     0.188680000000     0.161710000000    -0.00595992 
C542     C      0.655840000000     0.103990000000     0.113020000000    -0.0545422  
C543     C      0.698280000000     0.175740000000     0.357630000000    -0.0256599  
C544     C      0.613520000000     0.063070000000     0.403990000000    -0.0293929  
C545     C      0.602640000000     0.078600000000     0.459490000000    -0.00820862 
C546     C      0.604310000000     0.042240000000     0.424470000000    -0.00859016 
C547     C      0.672260000000     0.103710000000     0.398190000000    -0.0521831  
C548     C      0.640250000000     0.134670000000     0.362950000000    -0.0511589  
C549     C      0.642690000000     0.101970000000     0.398730000000     0.0627772  
C550     C      0.611960000000     0.097900000000     0.437520000000    -0.0296226  
C551     C      0.669830000000     0.136410000000     0.362410000000     0.0633703  
C552     C      0.701340000000     0.140950000000     0.324210000000    -0.0215274  
C553     C      0.685800000000     0.120770000000     0.380240000000    -0.0550105  
C554     C      0.711170000000     0.160290000000     0.302280000000    -0.0173483  
C555     C      0.707130000000     0.196880000000     0.337400000000    -0.00814697 
C556     C      0.626700000000     0.117640000000     0.380930000000    -0.0542043  
C557     C      0.608540000000     0.427140000000     0.110680000000    -0.0260234  
C558     C      0.702010000000     0.318490000000     0.151440000000    -0.0297299  
C559     C      0.731610000000     0.341970000000     0.196990000000    -0.00787608 
C560     C      0.730090000000     0.306640000000     0.160790000000    -0.00784383 
C561     C      0.682950000000     0.378530000000     0.124170000000    -0.0522969  
C562     C      0.627250000000     0.367090000000     0.139120000000    -0.0507355  
C563     C      0.677850000000     0.359960000000     0.144460000000     0.0629878  
C564     C      0.703500000000     0.352330000000     0.185960000000    -0.029742   
C565     C      0.632350000000     0.385670000000     0.118830000000     0.0631618  
C566     C      0.606420000000     0.392200000000     0.077360000000    -0.0218037  
C567     C      0.660460000000     0.391310000000     0.111390000000    -0.0549768  
C568     C      0.578310000000     0.402490000000     0.065880000000    -0.0170101  
C569     C      0.580470000000     0.438940000000     0.101280000000    -0.00794392 
C570     C      0.649740000000     0.354270000000     0.151860000000    -0.0546825  
C571     C      0.861650000000     0.178440000000     0.150790000000    -0.0262998  
C572     C      0.938090000000     0.061090000000     0.102840000000    -0.0289514  
C573     C      0.944970000000     0.073030000000     0.045910000000    -0.00836747 
C574     C      0.945240000000     0.039090000000     0.082870000000    -0.00906449 
C575     C      0.882170000000     0.103940000000     0.111860000000    -0.0500654  
C576     C      0.919020000000     0.136480000000     0.140820000000    -0.0516585  
C577     C      0.911420000000     0.101480000000     0.108070000000     0.0628823  
C578     C      0.937750000000     0.094010000000     0.066960000000    -0.0293627  
C579     C      0.889770000000     0.138970000000     0.144580000000     0.0651113  
C580     C      0.865080000000     0.145880000000     0.186620000000    -0.022519   
C581     C      0.871340000000     0.122470000000     0.129970000000    -0.0555188  
C582     C      0.858320000000     0.166610000000     0.208250000000    -0.0151353  
C583     C      0.855450000000     0.200650000000     0.170770000000    -0.00555824 
C584     C      0.929840000000     0.117890000000     0.122780000000    -0.0537771  
C585     C      0.859430000000     0.316540000000     0.361330000000    -0.0236255  
C586     C      0.941850000000     0.432490000000     0.404800000000    -0.0308028  
C587     C      0.944720000000     0.422710000000     0.462420000000    -0.00829415 
C588     C      0.949540000000     0.454950000000     0.424120000000    -0.00380061 
C589     C      0.883470000000     0.392090000000     0.395940000000    -0.0503177  
C590     C      0.919200000000     0.356170000000     0.370010000000    -0.049429   
C591     C      0.912720000000     0.393430000000     0.400260000000     0.0645375  
C592     C      0.937720000000     0.401250000000     0.441920000000    -0.0275533  
C593     C      0.889940000000     0.354720000000     0.365820000000     0.0684201  
C594     C      0.866310000000     0.346350000000     0.323590000000    -0.0201589  
C595     C      0.872090000000     0.372970000000     0.378820000000    -0.0556578  
C596     C      0.859320000000     0.324610000000     0.303120000000    -0.0134263  
C597     C      0.852730000000     0.293340000000     0.342720000000    -0.0109331  
C598     C      0.930600000000     0.375350000000     0.387040000000    -0.0520029  
C599     C      0.864320000000     0.145250000000     0.322930000000    -0.0235074  
C600     C      0.941260000000     0.094510000000     0.440070000000    -0.0296301  
C601     C      0.950670000000     0.039660000000     0.424750000000    -0.00866934 
C602     C      0.949080000000     0.074080000000     0.461420000000    -0.00810695 
C603     C      0.885080000000     0.103100000000     0.396540000000    -0.0506945  
C604     C      0.920630000000     0.135750000000     0.366260000000    -0.0507983  
C605     C      0.914470000000     0.100780000000     0.399270000000     0.0627261  
C606     C      0.942730000000     0.061270000000     0.404630000000    -0.0293808  
C607     C      0.891250000000     0.138090000000     0.363570000000     0.0688972  
C608     C      0.863360000000     0.177940000000     0.358770000000    -0.0183184  
C609     C      0.873470000000     0.121580000000     0.378840000000    -0.0567095  
C610     C      0.856050000000     0.200270000000     0.339060000000    -0.0199879  
C611     C      0.857610000000     0.166060000000     0.301650000000    -0.0114746  
C612     C      0.932240000000     0.117270000000     0.383930000000    -0.0519099  
C613     C      0.606470000000     0.391250000000     0.436510000000    -0.0252947  
C614     C      0.700310000000     0.350060000000     0.325730000000    -0.0300365  
C615     C      0.729200000000     0.305530000000     0.350800000000    -0.00768933 
C616     C      0.728370000000     0.340310000000     0.313960000000    -0.00767183 
C617     C      0.681230000000     0.377150000000     0.387290000000    -0.051296   
C618     C      0.625380000000     0.363480000000     0.375000000000    -0.0505632  
C619     C      0.675950000000     0.357770000000     0.367840000000     0.062602   
C620     C      0.701060000000     0.316740000000     0.360760000000    -0.0298179  
C621     C      0.630670000000     0.382860000000     0.394450000000     0.0670275  
C622     C      0.605590000000     0.423960000000     0.400890000000    -0.0190156  
C623     C      0.658860000000     0.389660000000     0.400520000000    -0.0565022  
C624     C      0.577580000000     0.435720000000     0.410890000000    -0.0133955  
C625     C      0.578500000000     0.401190000000     0.448290000000    -0.00740186 
C626     C      0.647760000000     0.350970000000     0.361760000000    -0.0532417  
C627     C      0.946290000000     0.428200000000     0.110170000000    -0.0268804  
C628     C      0.868050000000     0.310860000000     0.155670000000    -0.0288655  
C629     C      0.864570000000     0.321200000000     0.213150000000    -0.00809375 
C630     C      0.861150000000     0.288430000000     0.175250000000    -0.00870212 
C631     C      0.925000000000     0.352630000000     0.146200000000    -0.0491869  
C632     C      0.888140000000     0.387130000000     0.119710000000    -0.0513305  
C633     C      0.895830000000     0.350660000000     0.150680000000     0.0643823  
C634     C      0.871060000000     0.342640000000     0.192460000000    -0.0281007  
C635     C      0.917320000000     0.389160000000     0.115300000000     0.0652389  
C636     C      0.940940000000     0.397270000000     0.073000000000    -0.0229116  
C637     C      0.935750000000     0.371660000000     0.128620000000    -0.0546016  
C638     C      0.947850000000     0.418720000000     0.052200000000    -0.0142387  
C639     C      0.952780000000     0.451010000000     0.091010000000    -0.00466895 
C640     C      0.877380000000     0.368040000000     0.137210000000    -0.0543014  
C641     C      0.984890000000     0.453360000000     0.551780000000     0.399703   
C642     C      0.986140000000     0.039540000000     0.961430000000     0.385898   
C643     C      0.982460000000     0.038760000000     0.547690000000     0.386482   
C644     C      0.983690000000     0.455430000000     0.962020000000     0.394161   
C645     C      0.557310000000     0.445230000000     0.955660000000     0.398703   
C646     C      0.555560000000     0.048160000000     0.558250000000     0.394528   
C647     C      0.558030000000     0.446690000000     0.557160000000     0.399457   
C648     C      0.568570000000     0.041510000000     0.960790000000     0.394138   
C649     C      0.826050000000     0.287950000000     0.712340000000     0.392119   
C650     C      0.822470000000     0.202240000000     0.800790000000     0.392148   
C651     C      0.822500000000     0.289850000000     0.802220000000     0.39859    
C652     C      0.822950000000     0.202720000000     0.709750000000     0.399188   
C653     C      0.749580000000     0.196550000000     0.705330000000     0.4056     
C654     C      0.750180000000     0.296590000000     0.806290000000     0.394673   
C655     C      0.751610000000     0.297570000000     0.705100000000     0.395879   
C656     C      0.742780000000     0.199210000000     0.801170000000     0.400674   
C657     C      0.697840000000     0.177050000000     0.652850000000    -0.0264079  
C658     C      0.603190000000     0.068810000000     0.613220000000    -0.0295474  
C659     C      0.574130000000     0.092850000000     0.567680000000    -0.00832277 
C660     C      0.575150000000     0.057200000000     0.603420000000    -0.00822158 
C661     C      0.622940000000     0.128810000000     0.640560000000    -0.0506532  
C662     C      0.678480000000     0.116780000000     0.625500000000    -0.0513825  
C663     C      0.627820000000     0.110000000000     0.620450000000     0.0631563  
C664     C      0.602190000000     0.103000000000     0.578930000000    -0.029346   
C665     C      0.673610000000     0.135640000000     0.645550000000     0.0644111  
C666     C      0.699860000000     0.142660000000     0.686730000000    -0.0226068  
C667     C      0.645600000000     0.141570000000     0.653080000000    -0.054387   
C668     C      0.728280000000     0.152650000000     0.697660000000    -0.0143562  
C669     C      0.726180000000     0.188680000000     0.661710000000    -0.0059616  
C670     C      0.655840000000     0.103990000000     0.613020000000    -0.0545375  
C671     C      0.698280000000     0.175740000000     0.857630000000    -0.0256624  
C672     C      0.613510000000     0.063070000000     0.903990000000    -0.0294119  
C673     C      0.602640000000     0.078600000000     0.959490000000    -0.00820356 
C674     C      0.604300000000     0.042240000000     0.924470000000    -0.0085588  
C675     C      0.672260000000     0.103710000000     0.898190000000    -0.0521993  
C676     C      0.640250000000     0.134670000000     0.862950000000    -0.0511437  
C677     C      0.642690000000     0.101970000000     0.898730000000     0.0628315  
C678     C      0.611960000000     0.097900000000     0.937520000000    -0.0296338  
C679     C      0.669830000000     0.136410000000     0.862410000000     0.0633653  
C680     C      0.701330000000     0.140950000000     0.824210000000    -0.0214848  
C681     C      0.685800000000     0.120770000000     0.880240000000    -0.0549914  
C682     C      0.711170000000     0.160290000000     0.802280000000    -0.0173539  
C683     C      0.707130000000     0.196880000000     0.837400000000    -0.00814922 
C684     C      0.626700000000     0.117640000000     0.880930000000    -0.0542235  
C685     C      0.608540000000     0.427140000000     0.610680000000    -0.0260784  
C686     C      0.702010000000     0.318490000000     0.651440000000    -0.0297672  
C687     C      0.731610000000     0.341970000000     0.696990000000    -0.00789081 
C688     C      0.730090000000     0.306640000000     0.660800000000    -0.00772672 
C689     C      0.682950000000     0.378530000000     0.624170000000    -0.0523012  
C690     C      0.627250000000     0.367090000000     0.639120000000    -0.0507257  
C691     C      0.677850000000     0.359960000000     0.644460000000     0.0630221  
C692     C      0.703500000000     0.352330000000     0.685960000000    -0.0297927  
C693     C      0.632350000000     0.385670000000     0.618830000000     0.0631608  
C694     C      0.606420000000     0.392200000000     0.577360000000    -0.0218072  
C695     C      0.660460000000     0.391310000000     0.611390000000    -0.0549643  
C696     C      0.578310000000     0.402490000000     0.565880000000    -0.0170182  
C697     C      0.580470000000     0.438940000000     0.601270000000    -0.00782158 
C698     C      0.649740000000     0.354270000000     0.651860000000    -0.0546961  
C699     C      0.861650000000     0.178440000000     0.650790000000    -0.0262987  
C700     C      0.938090000000     0.061090000000     0.602840000000    -0.0289499  
C701     C      0.944970000000     0.073030000000     0.545910000000    -0.00837784 
C702     C      0.945240000000     0.039090000000     0.582870000000    -0.00906657 
C703     C      0.882170000000     0.103940000000     0.611860000000    -0.0500623  
C704     C      0.919020000000     0.136480000000     0.640820000000    -0.0516513  
C705     C      0.911420000000     0.101480000000     0.608070000000     0.0628913  
C706     C      0.937750000000     0.094010000000     0.566960000000    -0.0293563  
C707     C      0.889770000000     0.138970000000     0.644580000000     0.0651093  
C708     C      0.865080000000     0.145880000000     0.686620000000    -0.02246    
C709     C      0.871340000000     0.122470000000     0.629970000000    -0.0555026  
C710     C      0.858320000000     0.166610000000     0.708260000000    -0.0152407  
C711     C      0.855450000000     0.200650000000     0.670770000000    -0.00556205 
C712     C      0.929840000000     0.117890000000     0.622780000000    -0.0537769  
C713     C      0.859430000000     0.316540000000     0.861330000000    -0.0236282  
C714     C      0.941850000000     0.432490000000     0.904800000000    -0.0308014  
C715     C      0.944720000000     0.422710000000     0.962420000000    -0.00830835 
C716     C      0.949540000000     0.454950000000     0.924120000000    -0.00380151 
C717     C      0.883470000000     0.392090000000     0.895940000000    -0.0503021  
C718     C      0.919200000000     0.356170000000     0.870000000000    -0.0494728  
C719     C      0.912720000000     0.393430000000     0.900260000000     0.0645404  
C720     C      0.937720000000     0.401250000000     0.941920000000    -0.0275446  
C721     C      0.889940000000     0.354720000000     0.865820000000     0.0684504  
C722     C      0.866310000000     0.346350000000     0.823590000000    -0.0201569  
C723     C      0.872090000000     0.372970000000     0.878820000000    -0.0556628  
C724     C      0.859320000000     0.324610000000     0.803120000000    -0.0134366  
C725     C      0.852730000000     0.293340000000     0.842720000000    -0.0109323  
C726     C      0.930600000000     0.375350000000     0.887040000000    -0.0519868  
C727     C      0.864320000000     0.145250000000     0.822940000000    -0.0234724  
C728     C      0.941260000000     0.094510000000     0.940070000000    -0.029697   
C729     C      0.950670000000     0.039660000000     0.924750000000    -0.00867922 
C730     C      0.949080000000     0.074080000000     0.961420000000    -0.00807614 
C731     C      0.885080000000     0.103100000000     0.896540000000    -0.0507108  
C732     C      0.920630000000     0.135750000000     0.866260000000    -0.0507829  
C733     C      0.914470000000     0.100780000000     0.899270000000     0.0627789  
C734     C      0.942730000000     0.061270000000     0.904630000000    -0.0293475  
C735     C      0.891250000000     0.138090000000     0.863570000000     0.0688923  
C736     C      0.863360000000     0.177940000000     0.858770000000    -0.0183598  
C737     C      0.873470000000     0.121580000000     0.878840000000    -0.0566904  
C738     C      0.856050000000     0.200270000000     0.839050000000    -0.0199171  
C739     C      0.857600000000     0.166060000000     0.801650000000    -0.0114602  
C740     C      0.932240000000     0.117270000000     0.883930000000    -0.051929   
C741     C      0.606470000000     0.391250000000     0.936510000000    -0.0252963  
C742     C      0.700310000000     0.350060000000     0.825730000000    -0.03002    
C743     C      0.729200000000     0.305530000000     0.850800000000    -0.00765388 
C744     C      0.728370000000     0.340310000000     0.813960000000    -0.00772173 
C745     C      0.681230000000     0.377150000000     0.887290000000    -0.0512961  
C746     C      0.625380000000     0.363480000000     0.875000000000    -0.0505297  
C747     C      0.675950000000     0.357770000000     0.867840000000     0.0626286  
C748     C      0.701060000000     0.316740000000     0.860760000000    -0.0298304  
C749     C      0.630670000000     0.382860000000     0.894460000000     0.0670621  
C750     C      0.605590000000     0.423960000000     0.900880000000    -0.0190828  
C751     C      0.658850000000     0.389660000000     0.900520000000    -0.0565247  
C752     C      0.577580000000     0.435720000000     0.910890000000    -0.0133667  
C753     C      0.578500000000     0.401190000000     0.948290000000    -0.00742088 
C754     C      0.647760000000     0.350970000000     0.861760000000    -0.0532926  
C755     C      0.946290000000     0.428200000000     0.610170000000    -0.0268799  
C756     C      0.868050000000     0.310860000000     0.655670000000    -0.0288657  
C757     C      0.864570000000     0.321200000000     0.713150000000    -0.0080933  
C758     C      0.861150000000     0.288430000000     0.675250000000    -0.00870817 
C759     C      0.925000000000     0.352630000000     0.646200000000    -0.0491831  
C760     C      0.888140000000     0.387130000000     0.619710000000    -0.0513264  
C761     C      0.895830000000     0.350660000000     0.650680000000     0.0643845  
C762     C      0.871060000000     0.342640000000     0.692460000000    -0.0281236  
C763     C      0.917320000000     0.389160000000     0.615300000000     0.0652425  
C764     C      0.940940000000     0.397270000000     0.573000000000    -0.0229068  
C765     C      0.935750000000     0.371660000000     0.628620000000    -0.0545992  
C766     C      0.947850000000     0.418720000000     0.552200000000    -0.0142593  
C767     C      0.952780000000     0.451010000000     0.591010000000    -0.00467182 
C768     C      0.877380000000     0.368040000000     0.637210000000    -0.0542966  
C769     C      0.984890000000     0.953360000000     0.051780000000     0.399682   
C770     C      0.986140000000     0.539540000000     0.461440000000     0.38583    
C771     C      0.982460000000     0.538760000000     0.047690000000     0.386483   
C772     C      0.983690000000     0.955430000000     0.462020000000     0.394323   
C773     C      0.557310000000     0.945230000000     0.455650000000     0.398764   
C774     C      0.555560000000     0.548160000000     0.058250000000     0.394529   
C775     C      0.558030000000     0.946690000000     0.057160000000     0.39989    
C776     C      0.568580000000     0.541510000000     0.460790000000     0.394289   
C777     C      0.826050000000     0.787950000000     0.212340000000     0.392295   
C778     C      0.822470000000     0.702250000000     0.300790000000     0.392268   
C779     C      0.822500000000     0.789850000000     0.302220000000     0.398574   
C780     C      0.822950000000     0.702720000000     0.209750000000     0.399195   
C781     C      0.749580000000     0.696550000000     0.205330000000     0.405604   
C782     C      0.750180000000     0.796590000000     0.306290000000     0.39474    
C783     C      0.751610000000     0.797570000000     0.205100000000     0.395896   
C784     C      0.742780000000     0.699210000000     0.301160000000     0.400737   
C785     C      0.697840000000     0.677050000000     0.152850000000    -0.026455   
C786     C      0.603190000000     0.568810000000     0.113220000000    -0.0295449  
C787     C      0.574130000000     0.592850000000     0.067680000000    -0.0083261  
C788     C      0.575150000000     0.557200000000     0.103420000000    -0.00822127 
C789     C      0.622940000000     0.628810000000     0.140560000000    -0.0506579  
C790     C      0.678480000000     0.616780000000     0.125500000000    -0.0513999  
C791     C      0.627820000000     0.610000000000     0.120450000000     0.0631451  
C792     C      0.602190000000     0.603000000000     0.078930000000    -0.0293424  
C793     C      0.673610000000     0.635640000000     0.145550000000     0.0644055  
C794     C      0.699860000000     0.642660000000     0.186730000000    -0.022616   
C795     C      0.645600000000     0.641570000000     0.153080000000    -0.0543933  
C796     C      0.728280000000     0.652650000000     0.197660000000    -0.0143072  
C797     C      0.726180000000     0.688680000000     0.161710000000    -0.00594264 
C798     C      0.655840000000     0.603990000000     0.113020000000    -0.0545475  
C799     C      0.698280000000     0.675740000000     0.357630000000    -0.0256574  
C800     C      0.613520000000     0.563070000000     0.403990000000    -0.0294012  
C801     C      0.602640000000     0.578600000000     0.459490000000    -0.00816482 
C802     C      0.604310000000     0.542240000000     0.424470000000    -0.00856736 
C803     C      0.672260000000     0.603710000000     0.398190000000    -0.0521654  
C804     C      0.640250000000     0.634670000000     0.362950000000    -0.0511759  
C805     C      0.642690000000     0.601970000000     0.398730000000     0.0627568  
C806     C      0.611960000000     0.597900000000     0.437520000000    -0.0296342  
C807     C      0.669830000000     0.636410000000     0.362410000000     0.0633878  
C808     C      0.701340000000     0.640950000000     0.324210000000    -0.0215225  
C809     C      0.685810000000     0.620770000000     0.380240000000    -0.0550825  
C810     C      0.711170000000     0.660290000000     0.302280000000    -0.0173498  
C811     C      0.707130000000     0.696880000000     0.337400000000    -0.0081469  
C812     C      0.626700000000     0.617640000000     0.380930000000    -0.0541966  
C813     C      0.608540000000     0.927130000000     0.110680000000    -0.0259106  
C814     C      0.702010000000     0.818490000000     0.151440000000    -0.0297852  
C815     C      0.731610000000     0.841970000000     0.196990000000    -0.00792256 
C816     C      0.730090000000     0.806640000000     0.160790000000    -0.00782713 
C817     C      0.682950000000     0.878530000000     0.124170000000    -0.0523309  
C818     C      0.627250000000     0.867090000000     0.139120000000    -0.0507127  
C819     C      0.677850000000     0.859960000000     0.144460000000     0.0630404  
C820     C      0.703500000000     0.852330000000     0.185960000000    -0.0296976  
C821     C      0.632350000000     0.885670000000     0.118830000000     0.0631438  
C822     C      0.606420000000     0.892200000000     0.077360000000    -0.021802   
C823     C      0.660460000000     0.891310000000     0.111390000000    -0.0549677  
C824     C      0.578310000000     0.902490000000     0.065880000000    -0.0170094  
C825     C      0.580470000000     0.938940000000     0.101280000000    -0.00798116 
C826     C      0.649740000000     0.854260000000     0.151860000000    -0.0547568  
C827     C      0.861650000000     0.678440000000     0.150790000000    -0.0262984  
C828     C      0.938090000000     0.561090000000     0.102840000000    -0.0289585  
C829     C      0.944970000000     0.573030000000     0.045910000000    -0.00837275 
C830     C      0.945240000000     0.539090000000     0.082870000000    -0.00905167 
C831     C      0.882170000000     0.603940000000     0.111860000000    -0.0500707  
C832     C      0.919020000000     0.636480000000     0.140820000000    -0.0516633  
C833     C      0.911420000000     0.601480000000     0.108070000000     0.0628733  
C834     C      0.937750000000     0.594010000000     0.066960000000    -0.0293636  
C835     C      0.889770000000     0.638970000000     0.144580000000     0.0651105  
C836     C      0.865080000000     0.645880000000     0.186620000000    -0.0225199  
C837     C      0.871340000000     0.622470000000     0.129970000000    -0.055527   
C838     C      0.858320000000     0.666610000000     0.208250000000    -0.0151195  
C839     C      0.855450000000     0.700650000000     0.170770000000    -0.0055572  
C840     C      0.929840000000     0.617890000000     0.122780000000    -0.0537779  
C841     C      0.859430000000     0.816540000000     0.361330000000    -0.0236226  
C842     C      0.941850000000     0.932490000000     0.404800000000    -0.0308642  
C843     C      0.944720000000     0.922710000000     0.462420000000    -0.0082818  
C844     C      0.949540000000     0.954940000000     0.424120000000    -0.00366465 
C845     C      0.883470000000     0.892090000000     0.395940000000    -0.0503077  
C846     C      0.919200000000     0.856170000000     0.370010000000    -0.0494895  
C847     C      0.912720000000     0.893430000000     0.400250000000     0.0645032  
C848     C      0.937720000000     0.901250000000     0.441920000000    -0.0275617  
C849     C      0.889940000000     0.854720000000     0.365820000000     0.0684449  
C850     C      0.866310000000     0.846350000000     0.323590000000    -0.0201489  
C851     C      0.872090000000     0.872970000000     0.378820000000    -0.0556813  
C852     C      0.859320000000     0.824610000000     0.303120000000    -0.0134473  
C853     C      0.852730000000     0.793340000000     0.342720000000    -0.0109341  
C854     C      0.930600000000     0.875350000000     0.387040000000    -0.0519823  
C855     C      0.864320000000     0.645250000000     0.322930000000    -0.0235057  
C856     C      0.941260000000     0.594510000000     0.440070000000    -0.029632   
C857     C      0.950670000000     0.539660000000     0.424750000000    -0.0086559  
C858     C      0.949080000000     0.574080000000     0.461420000000    -0.00810563 
C859     C      0.885080000000     0.603100000000     0.396540000000    -0.050704   
C860     C      0.920630000000     0.635750000000     0.366260000000    -0.0507886  
C861     C      0.914470000000     0.600780000000     0.399270000000     0.0627194  
C862     C      0.942730000000     0.561270000000     0.404630000000    -0.0293887  
C863     C      0.891250000000     0.638090000000     0.363570000000     0.0688624  
C864     C      0.863360000000     0.677940000000     0.358770000000    -0.0183133  
C865     C      0.873470000000     0.621570000000     0.378840000000    -0.0566792  
C866     C      0.856050000000     0.700270000000     0.339060000000    -0.0200016  
C867     C      0.857610000000     0.666060000000     0.301650000000    -0.0114729  
C868     C      0.932240000000     0.617270000000     0.383930000000    -0.0519188  
C869     C      0.606470000000     0.891250000000     0.436510000000    -0.0252965  
C870     C      0.700310000000     0.850060000000     0.325730000000    -0.0300359  
C871     C      0.729200000000     0.805530000000     0.350800000000    -0.00768843 
C872     C      0.728370000000     0.840310000000     0.313960000000    -0.0076707  
C873     C      0.681230000000     0.877150000000     0.387290000000    -0.0513045  
C874     C      0.625380000000     0.863480000000     0.375000000000    -0.0505649  
C875     C      0.675950000000     0.857770000000     0.367840000000     0.0625988  
C876     C      0.701060000000     0.816740000000     0.360760000000    -0.0298177  
C877     C      0.630670000000     0.882860000000     0.394450000000     0.0670232  
C878     C      0.605590000000     0.923960000000     0.400890000000    -0.0190199  
C879     C      0.658860000000     0.889660000000     0.400520000000    -0.0565075  
C880     C      0.577580000000     0.935720000000     0.410890000000    -0.0133833  
C881     C      0.578500000000     0.901190000000     0.448290000000    -0.00740127 
C882     C      0.647760000000     0.850970000000     0.361760000000    -0.0532441  
C883     C      0.946290000000     0.928200000000     0.110170000000    -0.0268648  
C884     C      0.868050000000     0.810860000000     0.155670000000    -0.0288635  
C885     C      0.864570000000     0.821200000000     0.213150000000    -0.00810872 
C886     C      0.861150000000     0.788430000000     0.175250000000    -0.00870277 
C887     C      0.925000000000     0.852630000000     0.146200000000    -0.0491888  
C888     C      0.888140000000     0.887130000000     0.119710000000    -0.0513351  
C889     C      0.895830000000     0.850660000000     0.150680000000     0.0643784  
C890     C      0.871060000000     0.842640000000     0.192460000000    -0.028053   
C891     C      0.917320000000     0.889160000000     0.115300000000     0.065233   
C892     C      0.940940000000     0.897270000000     0.073000000000    -0.0229086  
C893     C      0.935750000000     0.871660000000     0.128620000000    -0.0546035  
C894     C      0.947850000000     0.918720000000     0.052200000000    -0.0142421  
C895     C      0.952780000000     0.951010000000     0.091010000000    -0.0047356  
C896     C      0.877380000000     0.868040000000     0.137210000000    -0.0543038  
C897     C      0.984890000000     0.953360000000     0.551780000000     0.399685   
C898     C      0.986140000000     0.539540000000     0.961440000000     0.385975   
C899     C      0.982460000000     0.538760000000     0.547690000000     0.386493   
C900     C      0.983690000000     0.955430000000     0.962020000000     0.394318   
C901     C      0.557310000000     0.945230000000     0.955660000000     0.398575   
C902     C      0.555560000000     0.548160000000     0.558250000000     0.394542   
C903     C      0.558030000000     0.946690000000     0.557160000000     0.399907   
C904     C      0.568570000000     0.541510000000     0.960790000000     0.39407    
C905     C      0.826050000000     0.787950000000     0.712340000000     0.392119   
C906     C      0.822470000000     0.702250000000     0.800790000000     0.392201   
C907     C      0.822500000000     0.789850000000     0.802220000000     0.398588   
C908     C      0.822950000000     0.702720000000     0.709750000000     0.39919    
C909     C      0.749580000000     0.696550000000     0.705330000000     0.405601   
C910     C      0.750180000000     0.796590000000     0.806290000000     0.394674   
C911     C      0.751610000000     0.797570000000     0.705100000000     0.39588    
C912     C      0.742780000000     0.699210000000     0.801170000000     0.400676   
C913     C      0.697840000000     0.677050000000     0.652850000000    -0.026407   
C914     C      0.603190000000     0.568810000000     0.613220000000    -0.0295474  
C915     C      0.574130000000     0.592850000000     0.567680000000    -0.00832644 
C916     C      0.575150000000     0.557200000000     0.603420000000    -0.00821797 
C917     C      0.622940000000     0.628810000000     0.640560000000    -0.0506555  
C918     C      0.678480000000     0.616780000000     0.625500000000    -0.0513915  
C919     C      0.627820000000     0.610000000000     0.620450000000     0.0631503  
C920     C      0.602190000000     0.603000000000     0.578930000000    -0.0293433  
C921     C      0.673610000000     0.635640000000     0.645550000000     0.064409   
C922     C      0.699860000000     0.642660000000     0.686730000000    -0.0226036  
C923     C      0.645600000000     0.641570000000     0.653080000000    -0.0543908  
C924     C      0.728280000000     0.652650000000     0.697660000000    -0.0143566  
C925     C      0.726180000000     0.688680000000     0.661710000000    -0.00596056 
C926     C      0.655840000000     0.603990000000     0.613020000000    -0.0545426  
C927     C      0.698280000000     0.675740000000     0.857630000000    -0.0256603  
C928     C      0.613510000000     0.563070000000     0.903990000000    -0.0294386  
C929     C      0.602640000000     0.578600000000     0.959490000000    -0.00820781 
C930     C      0.604310000000     0.542240000000     0.924470000000    -0.00856596 
C931     C      0.672260000000     0.603710000000     0.898190000000    -0.0521819  
C932     C      0.640250000000     0.634670000000     0.862950000000    -0.05116    
C933     C      0.642690000000     0.601970000000     0.898730000000     0.0627759  
C934     C      0.611960000000     0.597900000000     0.937520000000    -0.0296011  
C935     C      0.669830000000     0.636410000000     0.862410000000     0.0633715  
C936     C      0.701330000000     0.640950000000     0.824210000000    -0.0214804  
C937     C      0.685800000000     0.620770000000     0.880240000000    -0.0550113  
C938     C      0.711170000000     0.660290000000     0.802280000000    -0.0173554  
C939     C      0.707130000000     0.696880000000     0.837400000000    -0.00814902 
C940     C      0.626700000000     0.617640000000     0.880930000000    -0.054204   
C941     C      0.608540000000     0.927130000000     0.610680000000    -0.0259679  
C942     C      0.702010000000     0.818490000000     0.651440000000    -0.0298233  
C943     C      0.731610000000     0.841970000000     0.696990000000    -0.00790352 
C944     C      0.730090000000     0.806640000000     0.660800000000    -0.00770879 
C945     C      0.682950000000     0.878530000000     0.624170000000    -0.0523352  
C946     C      0.627250000000     0.867090000000     0.639120000000    -0.0507029  
C947     C      0.677850000000     0.859960000000     0.644460000000     0.0630746  
C948     C      0.703500000000     0.852330000000     0.685960000000    -0.0297576  
C949     C      0.632350000000     0.885670000000     0.618830000000     0.0631426  
C950     C      0.606420000000     0.892200000000     0.577360000000    -0.0218093  
C951     C      0.660460000000     0.891310000000     0.611390000000    -0.0549552  
C952     C      0.578310000000     0.902490000000     0.565880000000    -0.0170052  
C953     C      0.580470000000     0.938940000000     0.601270000000    -0.00785152 
C954     C      0.649740000000     0.854260000000     0.651860000000    -0.0547705  
C955     C      0.861650000000     0.678440000000     0.650790000000    -0.0262973  
C956     C      0.938090000000     0.561090000000     0.602840000000    -0.0289573  
C957     C      0.944970000000     0.573030000000     0.545910000000    -0.00838268 
C958     C      0.945240000000     0.539090000000     0.582870000000    -0.00905355 
C959     C      0.882170000000     0.603940000000     0.611860000000    -0.0500656  
C960     C      0.919020000000     0.636480000000     0.640820000000    -0.0516567  
C961     C      0.911420000000     0.601480000000     0.608070000000     0.0628778  
C962     C      0.937750000000     0.594010000000     0.566960000000    -0.0293577  
C963     C      0.889770000000     0.638970000000     0.644580000000     0.0651092  
C964     C      0.865080000000     0.645880000000     0.686620000000    -0.0224609  
C965     C      0.871340000000     0.622470000000     0.629970000000    -0.055512   
C966     C      0.858320000000     0.666610000000     0.708260000000    -0.0152249  
C967     C      0.855450000000     0.700650000000     0.670770000000    -0.00556103 
C968     C      0.929840000000     0.617890000000     0.622780000000    -0.0537714  
C969     C      0.859430000000     0.816540000000     0.861330000000    -0.0236253  
C970     C      0.941850000000     0.932490000000     0.904800000000    -0.0308593  
C971     C      0.944720000000     0.922710000000     0.962420000000    -0.00829486 
C972     C      0.949540000000     0.954940000000     0.924120000000    -0.00366552 
C973     C      0.883470000000     0.892090000000     0.895940000000    -0.0502974  
C974     C      0.919200000000     0.856170000000     0.870000000000    -0.0495339  
C975     C      0.912720000000     0.893430000000     0.900260000000     0.0645213  
C976     C      0.937720000000     0.901250000000     0.941920000000    -0.0275536  
C977     C      0.889940000000     0.854720000000     0.865820000000     0.0684747  
C978     C      0.866310000000     0.846350000000     0.823590000000    -0.0201468  
C979     C      0.872090000000     0.872970000000     0.878820000000    -0.055683   
C980     C      0.859320000000     0.824610000000     0.803120000000    -0.0134576  
C981     C      0.852730000000     0.793340000000     0.842720000000    -0.0109332  
C982     C      0.930600000000     0.875350000000     0.887040000000    -0.0519615  
C983     C      0.864320000000     0.645250000000     0.822940000000    -0.0234706  
C984     C      0.941260000000     0.594510000000     0.940070000000    -0.0296565  
C985     C      0.950670000000     0.539660000000     0.924760000000    -0.00855954 
C986     C      0.949080000000     0.574080000000     0.961420000000    -0.00809797 
C987     C      0.885080000000     0.603100000000     0.896540000000    -0.0506971  
C988     C      0.920630000000     0.635750000000     0.866260000000    -0.0507839  
C989     C      0.914470000000     0.600780000000     0.899270000000     0.0627255  
C990     C      0.942730000000     0.561270000000     0.904630000000    -0.0294302  
C991     C      0.891250000000     0.638090000000     0.863570000000     0.0688653  
C992     C      0.863360000000     0.677940000000     0.858770000000    -0.0183546  
C993     C      0.873470000000     0.621570000000     0.878840000000    -0.0566714  
C994     C      0.856050000000     0.700270000000     0.839050000000    -0.0199308  
C995     C      0.857600000000     0.666060000000     0.801650000000    -0.0114585  
C996     C      0.932240000000     0.617270000000     0.883930000000    -0.0519163  
C997     C      0.606470000000     0.891250000000     0.936510000000    -0.0252928  
C998     C      0.700310000000     0.850060000000     0.825730000000    -0.0300191  
C999     C      0.729200000000     0.805530000000     0.850800000000    -0.00765305 
C1000    C      0.728370000000     0.840310000000     0.813960000000    -0.00772069 
C1001    C      0.681230000000     0.877150000000     0.887290000000    -0.0513177  
C1002    C      0.625380000000     0.863480000000     0.875000000000    -0.0504548  
C1003    C      0.675950000000     0.857770000000     0.867840000000     0.0626401  
C1004    C      0.701060000000     0.816740000000     0.860760000000    -0.0298298  
C1005    C      0.630670000000     0.882860000000     0.894460000000     0.067026   
C1006    C      0.605590000000     0.923960000000     0.900880000000    -0.0190789  
C1007    C      0.658850000000     0.889660000000     0.900520000000    -0.0565139  
C1008    C      0.577580000000     0.935720000000     0.910890000000    -0.0133719  
C1009    C      0.578500000000     0.901190000000     0.948290000000    -0.0074285  
C1010    C      0.647760000000     0.850970000000     0.861760000000    -0.05333    
C1011    C      0.946290000000     0.928200000000     0.610170000000    -0.0268651  
C1012    C      0.868050000000     0.810860000000     0.655670000000    -0.0288637  
C1013    C      0.864570000000     0.821200000000     0.713150000000    -0.00810838 
C1014    C      0.861150000000     0.788430000000     0.675250000000    -0.00870889 
C1015    C      0.925000000000     0.852630000000     0.646200000000    -0.0491851  
C1016    C      0.888140000000     0.887130000000     0.619710000000    -0.0513311  
C1017    C      0.895830000000     0.850660000000     0.650680000000     0.0643806  
C1018    C      0.871060000000     0.842640000000     0.692460000000    -0.0280758  
C1019    C      0.917320000000     0.889160000000     0.615300000000     0.0652365  
C1020    C      0.940940000000     0.897270000000     0.573000000000    -0.0229111  
C1021    C      0.935750000000     0.871660000000     0.628620000000    -0.054601   
C1022    C      0.947850000000     0.918720000000     0.552200000000    -0.0142424  
C1023    C      0.952780000000     0.951010000000     0.591010000000    -0.00473777 
C1024    C      0.877380000000     0.868040000000     0.637210000000    -0.054299   
Co1      Co     0.526170000000     0.457790000000     0.506520000000     0.834685   
Co2      Co     0.027780000000     0.035320000000     0.006210000000     0.830057   
Co3      Co     0.526970000000     0.496830000000     0.046170000000     0.835053   
Co4      Co     0.028630000000     0.496320000000     0.466720000000     0.835513   
Co5      Co     0.281250000000     0.246590000000     0.215660000000     0.83852    
Co6      Co     0.280570000000     0.246220000000     0.295520000000     0.837768   
Co7      Co     0.282670000000     0.285170000000     0.255900000000     0.836759   
Co8      Co     0.282140000000     0.207790000000     0.255220000000     0.846493   
Co9      Co     0.526170000000     0.457790000000     0.006520000000     0.834175   
Co10     Co     0.027780000000     0.035320000000     0.506210000000     0.83055    
Co11     Co     0.526970000000     0.496830000000     0.546170000000     0.834994   
Co12     Co     0.028630000000     0.496320000000     0.966720000000     0.83593    
Co13     Co     0.281250000000     0.246590000000     0.715660000000     0.838445   
Co14     Co     0.280570000000     0.246220000000     0.795520000000     0.837766   
Co15     Co     0.282670000000     0.285170000000     0.755900000000     0.83674    
Co16     Co     0.282140000000     0.207790000000     0.755220000000     0.846489   
Co17     Co     0.526170000000     0.957790000000     0.506520000000     0.834655   
Co18     Co     0.027780000000     0.535320000000     0.006210000000     0.829646   
Co19     Co     0.526970000000     0.996830000000     0.046170000000     0.834505   
Co20     Co     0.028630000000     0.996310000000     0.466720000000     0.835001   
Co21     Co     0.281250000000     0.746590000000     0.215660000000     0.838519   
Co22     Co     0.280570000000     0.746220000000     0.295520000000     0.837759   
Co23     Co     0.282670000000     0.785170000000     0.255900000000     0.836762   
Co24     Co     0.282140000000     0.707790000000     0.255220000000     0.84651    
Co25     Co     0.526170000000     0.957790000000     0.006520000000     0.834168   
Co26     Co     0.027780000000     0.535320000000     0.506210000000     0.830131   
Co27     Co     0.526970000000     0.996830000000     0.546170000000     0.834458   
Co28     Co     0.028630000000     0.996310000000     0.966720000000     0.835387   
Co29     Co     0.281250000000     0.746590000000     0.715660000000     0.838449   
Co30     Co     0.280570000000     0.746220000000     0.795520000000     0.837769   
Co31     Co     0.282670000000     0.785170000000     0.755900000000     0.836741   
Co32     Co     0.282140000000     0.707790000000     0.755220000000     0.846491   
Co33     Co     0.026170000000     0.457790000000     0.506520000000     0.833007   
Co34     Co     0.527780000000     0.035320000000     0.006210000000     0.831749   
Co35     Co     0.026970000000     0.496830000000     0.046170000000     0.83341    
Co36     Co     0.528630000000     0.496320000000     0.466720000000     0.83718    
Co37     Co     0.781250000000     0.246590000000     0.215660000000     0.838451   
Co38     Co     0.780570000000     0.246220000000     0.295520000000     0.837724   
Co39     Co     0.782670000000     0.285170000000     0.255890000000     0.836763   
Co40     Co     0.782140000000     0.207790000000     0.255220000000     0.846516   
Co41     Co     0.026170000000     0.457790000000     0.006520000000     0.832514   
Co42     Co     0.527780000000     0.035320000000     0.506210000000     0.832129   
Co43     Co     0.026970000000     0.496830000000     0.546170000000     0.833355   
Co44     Co     0.528630000000     0.496320000000     0.966720000000     0.837578   
Co45     Co     0.781250000000     0.246590000000     0.715660000000     0.838438   
Co46     Co     0.780570000000     0.246220000000     0.795520000000     0.837745   
Co47     Co     0.782670000000     0.285170000000     0.755900000000     0.836735   
Co48     Co     0.782140000000     0.207790000000     0.755220000000     0.846495   
Co49     Co     0.026170000000     0.957790000000     0.506520000000     0.832998   
Co50     Co     0.527780000000     0.535320000000     0.006210000000     0.831324   
Co51     Co     0.026970000000     0.996830000000     0.046170000000     0.832865   
Co52     Co     0.528630000000     0.996310000000     0.466720000000     0.836637   
Co53     Co     0.781250000000     0.746590000000     0.215660000000     0.838455   
Co54     Co     0.780570000000     0.746220000000     0.295520000000     0.837743   
Co55     Co     0.782670000000     0.785170000000     0.255890000000     0.836761   
Co56     Co     0.782140000000     0.707790000000     0.255220000000     0.846505   
Co57     Co     0.026170000000     0.957790000000     0.006520000000     0.83252    
Co58     Co     0.527780000000     0.535320000000     0.506210000000     0.831701   
Co59     Co     0.026970000000     0.996830000000     0.546170000000     0.832808   
Co60     Co     0.528630000000     0.996310000000     0.966720000000     0.837073   
Co61     Co     0.781250000000     0.746590000000     0.715660000000     0.838443   
Co62     Co     0.780570000000     0.746220000000     0.795520000000     0.837765   
Co63     Co     0.782670000000     0.785170000000     0.755900000000     0.836734   
Co64     Co     0.782140000000     0.707790000000     0.755220000000     0.846484   
H1       H      0.160180000000     0.089490000000     0.097580000000     0.0433861  
H2       H      0.195060000000     0.181080000000     0.131010000000     0.0386367  
H3       H      0.198070000000     0.121020000000     0.190340000000     0.0507386  
H4       H      0.056680000000     0.105070000000     0.076040000000     0.0417166  
H5       H      0.242920000000     0.181920000000     0.147600000000     0.0557675  
H6       H      0.105050000000     0.065010000000     0.135190000000     0.0393445  
H7       H      0.103330000000     0.124680000000     0.075380000000     0.0374727  
H8       H      0.075970000000     0.035400000000     0.105920000000     0.0477186  
H9       H      0.227250000000     0.151080000000     0.219950000000     0.0715197  
H10      H      0.199920000000     0.112030000000     0.119530000000     0.0484718  
H11      H      0.224860000000     0.210530000000     0.159970000000     0.0485296  
H12      H      0.101500000000     0.133600000000     0.146490000000     0.0497312  
H13      H      0.180420000000     0.187100000000     0.163930000000     0.0428839  
H14      H      0.074250000000     0.095660000000     0.045510000000     0.0473482  
H15      H      0.120980000000     0.058550000000     0.102890000000     0.0402341  
H16      H      0.119950000000     0.093470000000     0.067860000000     0.0394458  
H17      H      0.141290000000     0.156040000000     0.168560000000     0.0485953  
H18      H      0.182420000000     0.152380000000     0.198110000000     0.0533156  
H19      H      0.057830000000     0.064790000000     0.116440000000     0.0426129  
H20      H      0.246070000000     0.113690000000     0.148810000000     0.153192   
H21      H      0.103830000000     0.116700000000     0.380960000000     0.0450886  
H22      H      0.184370000000     0.185130000000     0.372960000000     0.0385645  
H23      H      0.189830000000     0.124170000000     0.314740000000     0.0451615  
H24      H      0.121500000000     0.072880000000     0.471520000000     0.0404709  
H25      H      0.187890000000     0.207300000000     0.330150000000     0.0568448  
H26      H      0.126980000000     0.053290000000     0.388560000000     0.0392487  
H27      H      0.124290000000     0.114090000000     0.447110000000     0.0372441  
H28      H      0.090590000000     0.027620000000     0.414070000000     0.0502787  
H29      H      0.228050000000     0.150100000000     0.290640000000     0.0612484  
H30      H      0.127690000000     0.146640000000     0.349420000000     0.0507401  
H31      H      0.220420000000     0.211660000000     0.348060000000     0.04806    
H32      H      0.184820000000     0.091800000000     0.411780000000     0.0470421  
H33      H      0.217430000000     0.168010000000     0.368040000000     0.0387403  
H34      H      0.087720000000     0.088990000000     0.473160000000     0.0470489  
H35      H      0.094430000000     0.071180000000     0.393760000000     0.0422136  
H36      H      0.092880000000     0.106720000000     0.427940000000     0.040963   
H37      H      0.208670000000     0.121800000000     0.380320000000     0.0431201  
H38      H      0.220360000000     0.132620000000     0.334360000000     0.0390441  
H39      H      0.123420000000     0.031600000000     0.431720000000     0.041109   
H40      H      0.143200000000     0.161210000000     0.299450000000     0.153843   
H41      H      0.145220000000     0.339920000000     0.167400000000     0.0452415  
H42      H      0.111070000000     0.431490000000     0.132480000000     0.0393136  
H43      H      0.107800000000     0.370470000000     0.074180000000     0.0440603  
H44      H      0.249040000000     0.354430000000     0.188970000000     0.0420104  
H45      H      0.063430000000     0.432480000000     0.115200000000     0.0574551  
H46      H      0.199820000000     0.314830000000     0.129470000000     0.0379523  
H47      H      0.202450000000     0.373970000000     0.189740000000     0.0382242  
H48      H      0.228970000000     0.284840000000     0.158300000000     0.0480983  
H49      H      0.079580000000     0.400510000000     0.043640000000     0.0581772  
H50      H      0.105740000000     0.362530000000     0.145040000000     0.0497481  
H51      H      0.082010000000     0.460800000000     0.102830000000     0.0474648  
H52      H      0.204460000000     0.383050000000     0.118220000000     0.0474468  
H53      H      0.126220000000     0.436840000000     0.099650000000     0.0382605  
H54      H      0.231480000000     0.344260000000     0.219230000000     0.0477189  
H55      H      0.184270000000     0.308300000000     0.161920000000     0.0415547  
H56      H      0.185750000000     0.342760000000     0.197010000000     0.0411469  
H57      H      0.164990000000     0.405560000000     0.095750000000     0.0430132  
H58      H      0.124170000000     0.401400000000     0.065990000000     0.0374845  
H59      H      0.247260000000     0.314020000000     0.147480000000     0.0418635  
H60      H      0.059610000000     0.364360000000     0.114930000000     0.153611   
H61      H      0.452530000000     0.116320000000     0.120350000000     0.044525   
H62      H      0.372790000000     0.187060000000     0.133130000000     0.0396655  
H63      H      0.378630000000     0.130140000000     0.195490000000     0.0462491  
H64      H      0.424980000000     0.066190000000     0.036400000000     0.0415805  
H65      H      0.375410000000     0.211510000000     0.174920000000     0.0560579  
H66      H      0.425420000000     0.052430000000     0.119520000000     0.0397898  
H67      H      0.424810000000     0.109640000000     0.057160000000     0.0376535  
H68      H      0.458590000000     0.024140000000     0.093210000000     0.0512877  
H69      H      0.344520000000     0.156840000000     0.223380000000     0.068995   
H70      H      0.433440000000     0.148960000000     0.151970000000     0.0508371  
H71      H      0.340620000000     0.214790000000     0.161100000000     0.0506888  
H72      H      0.367750000000     0.091400000000     0.100760000000     0.0499027  
H73      H      0.341270000000     0.169840000000     0.143730000000     0.0470171  
H74      H      0.458160000000     0.082270000000     0.029990000000     0.0483368  
H75      H      0.458100000000     0.069080000000     0.111430000000     0.042318   
H76      H      0.457740000000     0.103160000000     0.074300000000     0.0416199  
H77      H      0.348660000000     0.123900000000     0.132600000000     0.0509338  
H78      H      0.344950000000     0.136400000000     0.180090000000     0.0549018  
H79      H      0.425240000000     0.029230000000     0.076720000000     0.0461936  
H80      H      0.426340000000     0.167960000000     0.200980000000     0.154198   
H81      H      0.453270000000     0.376010000000     0.389980000000     0.0490378  
H82      H      0.369240000000     0.308630000000     0.380020000000     0.0450195  
H83      H      0.381050000000     0.360860000000     0.314270000000     0.0487738  
H84      H      0.424490000000     0.430910000000     0.470140000000     0.0628588  
H85      H      0.372190000000     0.281350000000     0.340390000000     0.0806377  
H86      H      0.430560000000     0.441090000000     0.387220000000     0.0416958  
H87      H      0.423510000000     0.386560000000     0.451660000000     0.0471522  
H88      H      0.464740000000     0.468360000000     0.413900000000     0.0579216  
H89      H      0.346750000000     0.334040000000     0.286850000000     0.0592871  
H90      H      0.433170000000     0.342360000000     0.359990000000     0.0635447  
H91      H      0.336540000000     0.280700000000     0.352570000000     0.0557441  
H92      H      0.369490000000     0.405890000000     0.405940000000     0.0497339  
H93      H      0.339340000000     0.326660000000     0.366880000000     0.0389435  
H94      H      0.456160000000     0.413590000000     0.479600000000     0.0624603  
H95      H      0.461620000000     0.423000000000     0.397410000000     0.0554855  
H96      H      0.457610000000     0.391030000000     0.435920000000     0.0482061  
H97      H      0.349430000000     0.372410000000     0.375740000000     0.0441418  
H98      H      0.346470000000     0.357120000000     0.328700000000     0.0385514  
H99      H      0.430080000000     0.466480000000     0.428570000000     0.0422413  
H100     H      0.400810000000     0.280060000000     0.260680000000     0.164909   
H101     H      0.455020000000     0.115910000000     0.385690000000     0.0460592  
H102     H      0.377220000000     0.129430000000     0.313380000000     0.0467204  
H103     H      0.375350000000     0.186200000000     0.376120000000     0.0479905  
H104     H      0.431110000000     0.028950000000     0.430710000000     0.0423008  
H105     H      0.377690000000     0.172260000000     0.291960000000     0.0716906  
H106     H      0.427880000000     0.109960000000     0.449670000000     0.0380547  
H107     H      0.430420000000     0.052100000000     0.387990000000     0.03932    
H108     H      0.462130000000     0.083930000000     0.477070000000     0.0484961  
H109     H      0.340760000000     0.213510000000     0.349390000000     0.0603013  
H110     H      0.434530000000     0.148340000000     0.354620000000     0.0630191  
H111     H      0.344290000000     0.156740000000     0.285860000000     0.0599799  
H112     H      0.371180000000     0.090570000000     0.408230000000     0.0473823  
H113     H      0.344210000000     0.136310000000     0.330240000000     0.0407089  
H114     H      0.464890000000     0.025300000000     0.414600000000     0.0514828  
H115     H      0.460960000000     0.104060000000     0.432550000000     0.0422471  
H116     H      0.462450000000     0.069830000000     0.396000000000     0.0428846  
H117     H      0.350700000000     0.123000000000     0.377090000000     0.044056   
H118     H      0.343310000000     0.169490000000     0.366800000000     0.0378504  
H119     H      0.429320000000     0.067010000000     0.471210000000     0.0410706  
H120     H      0.379860000000     0.230910000000     0.290300000000     0.171259   
H121     H      0.143100000000     0.336040000000     0.346850000000     0.0461736  
H122     H      0.108370000000     0.369780000000     0.440970000000     0.0407129  
H123     H      0.107420000000     0.427070000000     0.378790000000     0.048774   
H124     H      0.246510000000     0.313510000000     0.363570000000     0.0417693  
H125     H      0.061180000000     0.387840000000     0.441710000000     0.0590398  
H126     H      0.198430000000     0.371600000000     0.321640000000     0.0385732  
H127     H      0.199650000000     0.313350000000     0.382830000000     0.0379093  
H128     H      0.227340000000     0.342080000000     0.291700000000     0.0474158  
H129     H      0.079270000000     0.457510000000     0.408620000000     0.0584089  
H130     H      0.103810000000     0.358140000000     0.370060000000     0.0597104  
H131     H      0.079810000000     0.399850000000     0.470570000000     0.0496946  
H132     H      0.202800000000     0.382550000000     0.392190000000     0.04695    
H133     H      0.124330000000     0.401640000000     0.446570000000     0.0379399  
H134     H      0.228800000000     0.283750000000     0.353600000000     0.048443   
H135     H      0.182500000000     0.339820000000     0.315410000000     0.0417477  
H136     H      0.183340000000     0.305920000000     0.350930000000     0.0419637  
H137     H      0.163530000000     0.404650000000     0.415370000000     0.0432981  
H138     H      0.123410000000     0.434800000000     0.410540000000     0.0370206  
H139     H      0.245640000000     0.353480000000     0.321100000000     0.0419972  
H140     H      0.029890000000     0.388190000000     0.378300000000     0.156823   
H141     H      0.354750000000     0.366880000000     0.140270000000     0.0441246  
H142     H      0.435800000000     0.436390000000     0.128390000000     0.0410271  
H143     H      0.426620000000     0.382350000000     0.063740000000     0.0457522  
H144     H      0.385010000000     0.313600000000     0.221020000000     0.0592798  
H145     H      0.433110000000     0.462580000000     0.087660000000     0.055597   
H146     H      0.379650000000     0.302400000000     0.138200000000     0.039338   
H147     H      0.384820000000     0.357750000000     0.202100000000     0.045709   
H148     H      0.346700000000     0.274270000000     0.165110000000     0.0502947  
H149     H      0.460760000000     0.409210000000     0.036220000000     0.0673451  
H150     H      0.373720000000     0.400390000000     0.109520000000     0.0495924  
H151     H      0.468260000000     0.464340000000     0.100960000000     0.0511657  
H152     H      0.439420000000     0.339360000000     0.156390000000     0.0533371  
H153     H      0.466540000000     0.418800000000     0.116440000000     0.0493285  
H154     H      0.352770000000     0.330150000000     0.230200000000     0.0592475  
H155     H      0.347920000000     0.319630000000     0.148190000000     0.0412932  
H156     H      0.350920000000     0.352320000000     0.186310000000     0.0421652  
H157     H      0.458380000000     0.372720000000     0.125450000000     0.0528389  
H158     H      0.460890000000     0.386940000000     0.078590000000     0.0556084  
H159     H      0.381080000000     0.277760000000     0.180080000000     0.0469978  
H160     H      0.380160000000     0.422230000000     0.061580000000     0.152685   
H161     H      0.160180000000     0.089490000000     0.597580000000     0.0434033  
H162     H      0.195060000000     0.181080000000     0.631000000000     0.038636   
H163     H      0.198070000000     0.121020000000     0.690340000000     0.050729   
H164     H      0.056670000000     0.105070000000     0.576040000000     0.0417211  
H165     H      0.242920000000     0.181920000000     0.647600000000     0.0557729  
H166     H      0.105050000000     0.065010000000     0.635190000000     0.0393427  
H167     H      0.103330000000     0.124680000000     0.575380000000     0.0375073  
H168     H      0.075970000000     0.035400000000     0.605920000000     0.0477213  
H169     H      0.227250000000     0.151080000000     0.719950000000     0.0715225  
H170     H      0.199920000000     0.112030000000     0.619530000000     0.0484887  
H171     H      0.224860000000     0.210530000000     0.659970000000     0.0485284  
H172     H      0.101500000000     0.133600000000     0.646490000000     0.0497368  
H173     H      0.180420000000     0.187100000000     0.663930000000     0.0428805  
H174     H      0.074250000000     0.095660000000     0.545510000000     0.0473994  
H175     H      0.120980000000     0.058550000000     0.602890000000     0.0402472  
H176     H      0.119950000000     0.093470000000     0.567860000000     0.0394848  
H177     H      0.141290000000     0.156040000000     0.668560000000     0.0485941  
H178     H      0.182420000000     0.152380000000     0.698110000000     0.0533087  
H179     H      0.057830000000     0.064790000000     0.616440000000     0.04261    
H180     H      0.246070000000     0.113690000000     0.648810000000     0.153197   
H181     H      0.103830000000     0.116700000000     0.880960000000     0.0450956  
H182     H      0.184370000000     0.185130000000     0.872960000000     0.0385872  
H183     H      0.189830000000     0.124170000000     0.814740000000     0.0451764  
H184     H      0.121500000000     0.072880000000     0.971520000000     0.0405351  
H185     H      0.187890000000     0.207300000000     0.830150000000     0.0568297  
H186     H      0.126990000000     0.053290000000     0.888560000000     0.0392356  
H187     H      0.124290000000     0.114090000000     0.947110000000     0.0372879  
H188     H      0.090590000000     0.027620000000     0.914070000000     0.0502832  
H189     H      0.228050000000     0.150100000000     0.790640000000     0.0612429  
H190     H      0.127690000000     0.146640000000     0.849420000000     0.0507412  
H191     H      0.220420000000     0.211660000000     0.848060000000     0.0480547  
H192     H      0.184820000000     0.091800000000     0.911780000000     0.0470492  
H193     H      0.217440000000     0.168010000000     0.868040000000     0.0387592  
H194     H      0.087720000000     0.088990000000     0.973160000000     0.0471146  
H195     H      0.094430000000     0.071180000000     0.893760000000     0.0422001  
H196     H      0.092880000000     0.106720000000     0.927930000000     0.0409792  
H197     H      0.208680000000     0.121800000000     0.880320000000     0.04313    
H198     H      0.220360000000     0.132620000000     0.834360000000     0.0390574  
H199     H      0.123420000000     0.031600000000     0.931720000000     0.0411381  
H200     H      0.143200000000     0.161210000000     0.799450000000     0.153842   
H201     H      0.145220000000     0.339920000000     0.667400000000     0.0452454  
H202     H      0.111070000000     0.431490000000     0.632480000000     0.0393138  
H203     H      0.107800000000     0.370470000000     0.574180000000     0.0440949  
H204     H      0.249040000000     0.354430000000     0.688970000000     0.0420079  
H205     H      0.063430000000     0.432480000000     0.615200000000     0.0574509  
H206     H      0.199820000000     0.314830000000     0.629470000000     0.0379817  
H207     H      0.202450000000     0.373970000000     0.689740000000     0.038237   
H208     H      0.228970000000     0.284840000000     0.658300000000     0.0480707  
H209     H      0.079580000000     0.400510000000     0.543640000000     0.0582298  
H210     H      0.105740000000     0.362530000000     0.645040000000     0.0497469  
H211     H      0.082010000000     0.460800000000     0.602830000000     0.0474689  
H212     H      0.204460000000     0.383050000000     0.618220000000     0.0474692  
H213     H      0.126220000000     0.436840000000     0.599650000000     0.0382746  
H214     H      0.231480000000     0.344260000000     0.719230000000     0.0477131  
H215     H      0.184270000000     0.308300000000     0.661920000000     0.0415641  
H216     H      0.185750000000     0.342760000000     0.697010000000     0.041157   
H217     H      0.164990000000     0.405560000000     0.595750000000     0.043032   
H218     H      0.124170000000     0.401400000000     0.566000000000     0.0375374  
H219     H      0.247260000000     0.314020000000     0.647480000000     0.0418409  
H220     H      0.059610000000     0.364360000000     0.614930000000     0.153616   
H221     H      0.452530000000     0.116320000000     0.620350000000     0.044528   
H222     H      0.372790000000     0.187060000000     0.633130000000     0.0396826  
H223     H      0.378630000000     0.130140000000     0.695490000000     0.0462477  
H224     H      0.424980000000     0.066190000000     0.536400000000     0.0416461  
H225     H      0.375410000000     0.211510000000     0.674920000000     0.0560603  
H226     H      0.425420000000     0.052430000000     0.619520000000     0.0397908  
H227     H      0.424810000000     0.109640000000     0.557160000000     0.037695   
H228     H      0.458590000000     0.024140000000     0.593210000000     0.051289   
H229     H      0.344520000000     0.156840000000     0.723380000000     0.0689944  
H230     H      0.433440000000     0.148960000000     0.651970000000     0.0508418  
H231     H      0.340620000000     0.214790000000     0.661100000000     0.0506979  
H232     H      0.367750000000     0.091400000000     0.600750000000     0.0499034  
H233     H      0.341270000000     0.169840000000     0.643730000000     0.0470281  
H234     H      0.458160000000     0.082270000000     0.529990000000     0.0484145  
H235     H      0.458100000000     0.069080000000     0.611430000000     0.0423166  
H236     H      0.457740000000     0.103160000000     0.574300000000     0.0416357  
H237     H      0.348660000000     0.123900000000     0.632600000000     0.0509485  
H238     H      0.344950000000     0.136400000000     0.680090000000     0.0549035  
H239     H      0.425240000000     0.029230000000     0.576720000000     0.0462121  
H240     H      0.426340000000     0.167960000000     0.700980000000     0.154197   
H241     H      0.453270000000     0.376010000000     0.889980000000     0.0490399  
H242     H      0.369240000000     0.308630000000     0.880020000000     0.0450404  
H243     H      0.381050000000     0.360860000000     0.814270000000     0.0487712  
H244     H      0.424490000000     0.430910000000     0.970140000000     0.0629527  
H245     H      0.372190000000     0.281350000000     0.840390000000     0.0806425  
H246     H      0.430560000000     0.441090000000     0.887220000000     0.0416967  
H247     H      0.423510000000     0.386560000000     0.951660000000     0.047205   
H248     H      0.464740000000     0.468360000000     0.913900000000     0.0579218  
H249     H      0.346750000000     0.334040000000     0.786850000000     0.0592868  
H250     H      0.433170000000     0.342360000000     0.859990000000     0.0635727  
H251     H      0.336540000000     0.280700000000     0.852570000000     0.0557535  
H252     H      0.369490000000     0.405890000000     0.905940000000     0.0497582  
H253     H      0.339340000000     0.326660000000     0.866880000000     0.0389558  
H254     H      0.456160000000     0.413590000000     0.979600000000     0.0625571  
H255     H      0.461620000000     0.423000000000     0.897410000000     0.0554839  
H256     H      0.457610000000     0.391030000000     0.935920000000     0.0482263  
H257     H      0.349430000000     0.372410000000     0.875740000000     0.0441549  
H258     H      0.346470000000     0.357120000000     0.828700000000     0.0385516  
H259     H      0.430080000000     0.466480000000     0.928570000000     0.0422678  
H260     H      0.400810000000     0.280060000000     0.760680000000     0.164857   
H261     H      0.455020000000     0.115910000000     0.885690000000     0.0460713  
H262     H      0.377220000000     0.129430000000     0.813380000000     0.0467151  
H263     H      0.375350000000     0.186200000000     0.876120000000     0.0480163  
H264     H      0.431110000000     0.028950000000     0.930710000000     0.0423021  
H265     H      0.377690000000     0.172260000000     0.791960000000     0.0717052  
H266     H      0.427880000000     0.109960000000     0.949660000000     0.038125   
H267     H      0.430420000000     0.052100000000     0.887990000000     0.0393243  
H268     H      0.462130000000     0.083930000000     0.977070000000     0.0485711  
H269     H      0.340760000000     0.213510000000     0.849390000000     0.0602821  
H270     H      0.434530000000     0.148340000000     0.854620000000     0.0630193  
H271     H      0.344290000000     0.156740000000     0.785860000000     0.0599909  
H272     H      0.371180000000     0.090570000000     0.908230000000     0.0474135  
H273     H      0.344210000000     0.136310000000     0.830240000000     0.0407069  
H274     H      0.464890000000     0.025300000000     0.914600000000     0.0514491  
H275     H      0.460960000000     0.104060000000     0.932550000000     0.0422814  
H276     H      0.462450000000     0.069830000000     0.896000000000     0.0428842  
H277     H      0.350700000000     0.123000000000     0.877090000000     0.044064   
H278     H      0.343310000000     0.169490000000     0.866800000000     0.0378713  
H279     H      0.429320000000     0.067010000000     0.971210000000     0.0411395  
H280     H      0.379860000000     0.230910000000     0.790300000000     0.171257   
H281     H      0.143100000000     0.336040000000     0.846850000000     0.0461738  
H282     H      0.108370000000     0.369780000000     0.940970000000     0.0407644  
H283     H      0.107420000000     0.427070000000     0.878780000000     0.0487758  
H284     H      0.246510000000     0.313510000000     0.863570000000     0.0417899  
H285     H      0.061180000000     0.387840000000     0.941710000000     0.0590589  
H286     H      0.198430000000     0.371600000000     0.821640000000     0.0385724  
H287     H      0.199650000000     0.313350000000     0.882830000000     0.0379308  
H288     H      0.227340000000     0.342080000000     0.791700000000     0.0474144  
H289     H      0.079270000000     0.457510000000     0.908620000000     0.0584125  
H290     H      0.103810000000     0.358140000000     0.870060000000     0.0597203  
H291     H      0.079810000000     0.399850000000     0.970570000000     0.0497618  
H292     H      0.202800000000     0.382550000000     0.892190000000     0.0469677  
H293     H      0.124330000000     0.401640000000     0.946570000000     0.0379938  
H294     H      0.228800000000     0.283750000000     0.853590000000     0.0484703  
H295     H      0.182500000000     0.339820000000     0.815410000000     0.0417456  
H296     H      0.183340000000     0.305920000000     0.850930000000     0.0419667  
H297     H      0.163530000000     0.404650000000     0.915370000000     0.0433259  
H298     H      0.123410000000     0.434800000000     0.910540000000     0.0370349  
H299     H      0.245640000000     0.353480000000     0.821100000000     0.042      
H300     H      0.029890000000     0.388190000000     0.878300000000     0.156826   
H301     H      0.354750000000     0.366880000000     0.640270000000     0.0441313  
H302     H      0.435800000000     0.436390000000     0.628390000000     0.0410254  
H303     H      0.426620000000     0.382350000000     0.563740000000     0.0457792  
H304     H      0.385010000000     0.313600000000     0.721020000000     0.0592927  
H305     H      0.433110000000     0.462580000000     0.587660000000     0.0556028  
H306     H      0.379650000000     0.302400000000     0.638200000000     0.0393521  
H307     H      0.384830000000     0.357750000000     0.702100000000     0.0456935  
H308     H      0.346700000000     0.274270000000     0.665110000000     0.050312   
H309     H      0.460770000000     0.409210000000     0.536220000000     0.0673995  
H310     H      0.373720000000     0.400390000000     0.609520000000     0.0496033  
H311     H      0.468260000000     0.464340000000     0.600960000000     0.0511647  
H312     H      0.439420000000     0.339360000000     0.656390000000     0.0533393  
H313     H      0.466540000000     0.418800000000     0.616440000000     0.0493255  
H314     H      0.352770000000     0.330150000000     0.730200000000     0.0592645  
H315     H      0.347920000000     0.319630000000     0.648190000000     0.0413039  
H316     H      0.350920000000     0.352320000000     0.686310000000     0.0421575  
H317     H      0.458380000000     0.372720000000     0.625450000000     0.0528393  
H318     H      0.460890000000     0.386940000000     0.578590000000     0.055621   
H319     H      0.381080000000     0.277760000000     0.680080000000     0.0470011  
H320     H      0.380160000000     0.422230000000     0.561580000000     0.152705   
H321     H      0.160180000000     0.589490000000     0.097580000000     0.0433635  
H322     H      0.195060000000     0.681080000000     0.131010000000     0.0386424  
H323     H      0.198070000000     0.621020000000     0.190340000000     0.0507199  
H324     H      0.056680000000     0.605070000000     0.076040000000     0.0417188  
H325     H      0.242920000000     0.681920000000     0.147600000000     0.0557575  
H326     H      0.105050000000     0.565010000000     0.135190000000     0.0393071  
H327     H      0.103330000000     0.624680000000     0.075380000000     0.0374739  
H328     H      0.075970000000     0.535400000000     0.105920000000     0.0476525  
H329     H      0.227250000000     0.651080000000     0.219950000000     0.0715211  
H330     H      0.199920000000     0.612030000000     0.119530000000     0.0484573  
H331     H      0.224860000000     0.710530000000     0.159970000000     0.0485178  
H332     H      0.101500000000     0.633600000000     0.146490000000     0.0497267  
H333     H      0.180420000000     0.687100000000     0.163930000000     0.042889   
H334     H      0.074250000000     0.595660000000     0.045510000000     0.0473473  
H335     H      0.120980000000     0.558550000000     0.102890000000     0.0401943  
H336     H      0.119950000000     0.593470000000     0.067860000000     0.0394322  
H337     H      0.141290000000     0.656040000000     0.168560000000     0.0485943  
H338     H      0.182420000000     0.652380000000     0.198110000000     0.0533071  
H339     H      0.057830000000     0.564790000000     0.116440000000     0.042588   
H340     H      0.246070000000     0.613690000000     0.148810000000     0.153174   
H341     H      0.103830000000     0.616700000000     0.380960000000     0.045078   
H342     H      0.184370000000     0.685130000000     0.372960000000     0.0385665  
H343     H      0.189830000000     0.624170000000     0.314740000000     0.0451428  
H344     H      0.121500000000     0.572880000000     0.471520000000     0.0404501  
H345     H      0.187890000000     0.707300000000     0.330150000000     0.0568446  
H346     H      0.126980000000     0.553290000000     0.388560000000     0.0392166  
H347     H      0.124290000000     0.614090000000     0.447110000000     0.0372423  
H348     H      0.090590000000     0.527620000000     0.414070000000     0.0501971  
H349     H      0.228050000000     0.650100000000     0.290640000000     0.0612465  
H350     H      0.127690000000     0.646640000000     0.349420000000     0.0507402  
H351     H      0.220420000000     0.711660000000     0.348060000000     0.0480657  
H352     H      0.184820000000     0.591800000000     0.411780000000     0.046987   
H353     H      0.217430000000     0.668010000000     0.368040000000     0.03874    
H354     H      0.087720000000     0.588990000000     0.473160000000     0.0470496  
H355     H      0.094430000000     0.571180000000     0.393760000000     0.042217   
H356     H      0.092880000000     0.606720000000     0.427940000000     0.0409623  
H357     H      0.208670000000     0.621800000000     0.380320000000     0.0431131  
H358     H      0.220360000000     0.632620000000     0.334360000000     0.0390309  
H359     H      0.123420000000     0.531600000000     0.431720000000     0.0410275  
H360     H      0.143200000000     0.661210000000     0.299450000000     0.153838   
H361     H      0.145220000000     0.839920000000     0.167400000000     0.0452683  
H362     H      0.111070000000     0.931490000000     0.132480000000     0.0392506  
H363     H      0.107800000000     0.870470000000     0.074180000000     0.0440755  
H364     H      0.249040000000     0.854430000000     0.188970000000     0.0420022  
H365     H      0.063430000000     0.932480000000     0.115200000000     0.05744    
H366     H      0.199820000000     0.814830000000     0.129470000000     0.0379657  
H367     H      0.202450000000     0.873970000000     0.189740000000     0.0382003  
H368     H      0.228970000000     0.784840000000     0.158300000000     0.0480964  
H369     H      0.079580000000     0.900510000000     0.043640000000     0.0581671  
H370     H      0.105740000000     0.862530000000     0.145040000000     0.0497394  
H371     H      0.082010000000     0.960800000000     0.102830000000     0.0474096  
H372     H      0.204460000000     0.883050000000     0.118220000000     0.0474416  
H373     H      0.126220000000     0.936830000000     0.099650000000     0.0382037  
H374     H      0.231480000000     0.844260000000     0.219230000000     0.0477137  
H375     H      0.184270000000     0.808300000000     0.161920000000     0.0415669  
H376     H      0.185750000000     0.842750000000     0.197010000000     0.0411308  
H377     H      0.164990000000     0.905560000000     0.095750000000     0.0429848  
H378     H      0.124170000000     0.901400000000     0.065990000000     0.0374874  
H379     H      0.247260000000     0.814020000000     0.147480000000     0.041858   
H380     H      0.059610000000     0.864360000000     0.114930000000     0.153612   
H381     H      0.452530000000     0.616310000000     0.120350000000     0.0445175  
H382     H      0.372790000000     0.687060000000     0.133130000000     0.0396682  
H383     H      0.378630000000     0.630140000000     0.195490000000     0.0462357  
H384     H      0.424980000000     0.566200000000     0.036400000000     0.0415489  
H385     H      0.375410000000     0.711510000000     0.174920000000     0.056061   
H386     H      0.425420000000     0.552430000000     0.119520000000     0.0397446  
H387     H      0.424810000000     0.609640000000     0.057160000000     0.0376511  
H388     H      0.458590000000     0.524140000000     0.093210000000     0.0512052  
H389     H      0.344520000000     0.656840000000     0.223380000000     0.0689852  
H390     H      0.433440000000     0.648960000000     0.151970000000     0.0508377  
H391     H      0.340620000000     0.714790000000     0.161100000000     0.0506907  
H392     H      0.367750000000     0.591400000000     0.100760000000     0.0498761  
H393     H      0.341270000000     0.669840000000     0.143730000000     0.0470166  
H394     H      0.458160000000     0.582270000000     0.029990000000     0.0483351  
H395     H      0.458100000000     0.569080000000     0.111430000000     0.0423003  
H396     H      0.457740000000     0.603160000000     0.074300000000     0.0416222  
H397     H      0.348660000000     0.623900000000     0.132600000000     0.0509247  
H398     H      0.344950000000     0.636400000000     0.180090000000     0.0548927  
H399     H      0.425240000000     0.529230000000     0.076720000000     0.0461162  
H400     H      0.426340000000     0.667960000000     0.200980000000     0.154192   
H401     H      0.453270000000     0.876010000000     0.389980000000     0.048992   
H402     H      0.369240000000     0.808630000000     0.380020000000     0.0450213  
H403     H      0.381050000000     0.860860000000     0.314270000000     0.048755   
H404     H      0.424490000000     0.930910000000     0.470140000000     0.0628362  
H405     H      0.372190000000     0.781350000000     0.340390000000     0.0806421  
H406     H      0.430560000000     0.941090000000     0.387220000000     0.0416671  
H407     H      0.423510000000     0.886560000000     0.451660000000     0.0471514  
H408     H      0.464740000000     0.968360000000     0.413900000000     0.057814   
H409     H      0.346750000000     0.834040000000     0.286850000000     0.0592849  
H410     H      0.433170000000     0.842370000000     0.359990000000     0.0635743  
H411     H      0.336540000000     0.780700000000     0.352570000000     0.0557469  
H412     H      0.369490000000     0.905890000000     0.405940000000     0.049704   
H413     H      0.339340000000     0.826660000000     0.366880000000     0.0389405  
H414     H      0.456160000000     0.913590000000     0.479600000000     0.062452   
H415     H      0.461620000000     0.923000000000     0.397410000000     0.0554858  
H416     H      0.457610000000     0.891030000000     0.435920000000     0.0482093  
H417     H      0.349430000000     0.872410000000     0.375740000000     0.0441354  
H418     H      0.346470000000     0.857120000000     0.328700000000     0.0385376  
H419     H      0.430080000000     0.966480000000     0.428570000000     0.0421322  
H420     H      0.400810000000     0.780060000000     0.260680000000     0.164918   
H421     H      0.455020000000     0.615910000000     0.385690000000     0.046056   
H422     H      0.377220000000     0.629430000000     0.313380000000     0.0467243  
H423     H      0.375350000000     0.686200000000     0.376120000000     0.0479898  
H424     H      0.431110000000     0.528950000000     0.430710000000     0.04222    
H425     H      0.377690000000     0.672260000000     0.291960000000     0.0716789  
H426     H      0.427880000000     0.609960000000     0.449670000000     0.038053   
H427     H      0.430420000000     0.552100000000     0.387990000000     0.0392738  
H428     H      0.462130000000     0.583930000000     0.477070000000     0.0484944  
H429     H      0.340760000000     0.713510000000     0.349390000000     0.0603125  
H430     H      0.434530000000     0.648340000000     0.354620000000     0.0630132  
H431     H      0.344290000000     0.656740000000     0.285860000000     0.0599668  
H432     H      0.371180000000     0.590570000000     0.408230000000     0.0473566  
H433     H      0.344210000000     0.636310000000     0.330240000000     0.0407122  
H434     H      0.464890000000     0.525300000000     0.414600000000     0.051402   
H435     H      0.460960000000     0.604060000000     0.432550000000     0.0422492  
H436     H      0.462450000000     0.569830000000     0.396000000000     0.0428679  
H437     H      0.350700000000     0.623000000000     0.377090000000     0.044031   
H438     H      0.343310000000     0.669490000000     0.366800000000     0.0378488  
H439     H      0.429320000000     0.567010000000     0.471210000000     0.041042   
H440     H      0.379860000000     0.730910000000     0.290300000000     0.171247   
H441     H      0.143100000000     0.836040000000     0.346850000000     0.0461732  
H442     H      0.108370000000     0.869780000000     0.440970000000     0.0407124  
H443     H      0.107420000000     0.927070000000     0.378790000000     0.0487442  
H444     H      0.246510000000     0.813510000000     0.363570000000     0.0417674  
H445     H      0.061180000000     0.887840000000     0.441710000000     0.059043   
H446     H      0.198430000000     0.871600000000     0.321640000000     0.0385544  
H447     H      0.199650000000     0.813350000000     0.382830000000     0.0379104  
H448     H      0.227340000000     0.842080000000     0.291700000000     0.0474082  
H449     H      0.079270000000     0.957510000000     0.408620000000     0.0583561  
H450     H      0.103810000000     0.858140000000     0.370060000000     0.0597092  
H451     H      0.079810000000     0.899850000000     0.470570000000     0.0496989  
H452     H      0.202800000000     0.882550000000     0.392190000000     0.0469328  
H453     H      0.124330000000     0.901640000000     0.446570000000     0.0379259  
H454     H      0.228800000000     0.783750000000     0.353600000000     0.0484447  
H455     H      0.182500000000     0.839820000000     0.315410000000     0.0417438  
H456     H      0.183340000000     0.805920000000     0.350930000000     0.0419657  
H457     H      0.163530000000     0.904650000000     0.415370000000     0.0432759  
H458     H      0.123410000000     0.934800000000     0.410540000000     0.0369824  
H459     H      0.245640000000     0.853480000000     0.321100000000     0.0419849  
H460     H      0.029890000000     0.888190000000     0.378300000000     0.156819   
H461     H      0.354750000000     0.866870000000     0.140270000000     0.0441129  
H462     H      0.435800000000     0.936390000000     0.128390000000     0.040985   
H463     H      0.426620000000     0.882350000000     0.063740000000     0.0457535  
H464     H      0.385010000000     0.813600000000     0.221020000000     0.0592877  
H465     H      0.433110000000     0.962570000000     0.087660000000     0.0555646  
H466     H      0.379650000000     0.802400000000     0.138200000000     0.0393403  
H467     H      0.384820000000     0.857760000000     0.202100000000     0.0456729  
H468     H      0.346700000000     0.774270000000     0.165110000000     0.0502968  
H469     H      0.460760000000     0.909210000000     0.036220000000     0.0673473  
H470     H      0.373720000000     0.900390000000     0.109520000000     0.0495746  
H471     H      0.468260000000     0.964330000000     0.100960000000     0.0511252  
H472     H      0.439420000000     0.839360000000     0.156390000000     0.0533368  
H473     H      0.466540000000     0.918800000000     0.116440000000     0.0493122  
H474     H      0.352770000000     0.830150000000     0.230200000000     0.0592465  
H475     H      0.347920000000     0.819630000000     0.148190000000     0.04129    
H476     H      0.350920000000     0.852320000000     0.186310000000     0.0421423  
H477     H      0.458380000000     0.872720000000     0.125450000000     0.0528365  
H478     H      0.460890000000     0.886940000000     0.078590000000     0.05561    
H479     H      0.381080000000     0.777760000000     0.180080000000     0.0470012  
H480     H      0.380160000000     0.922230000000     0.061580000000     0.152677   
H481     H      0.160180000000     0.589490000000     0.597580000000     0.0433855  
H482     H      0.195060000000     0.681080000000     0.631000000000     0.0386377  
H483     H      0.198070000000     0.621020000000     0.690340000000     0.0507128  
H484     H      0.056670000000     0.605070000000     0.576040000000     0.0417231  
H485     H      0.242920000000     0.681920000000     0.647600000000     0.055773   
H486     H      0.105050000000     0.565010000000     0.635190000000     0.0393066  
H487     H      0.103330000000     0.624680000000     0.575380000000     0.03751    
H488     H      0.075970000000     0.535400000000     0.605920000000     0.047655   
H489     H      0.227250000000     0.651080000000     0.719950000000     0.0715188  
H490     H      0.199920000000     0.612030000000     0.619530000000     0.0484729  
H491     H      0.224860000000     0.710530000000     0.659970000000     0.0485304  
H492     H      0.101500000000     0.633600000000     0.646490000000     0.0497298  
H493     H      0.180420000000     0.687100000000     0.663930000000     0.0428827  
H494     H      0.074250000000     0.595660000000     0.545510000000     0.0473988  
H495     H      0.120980000000     0.558550000000     0.602890000000     0.0402081  
H496     H      0.119950000000     0.593470000000     0.567860000000     0.0394723  
H497     H      0.141290000000     0.656040000000     0.668560000000     0.0485954  
H498     H      0.182420000000     0.652380000000     0.698110000000     0.0533049  
H499     H      0.057830000000     0.564790000000     0.616440000000     0.042585   
H500     H      0.246070000000     0.613690000000     0.648810000000     0.15318    
H501     H      0.103830000000     0.616700000000     0.880960000000     0.0450829  
H502     H      0.184370000000     0.685130000000     0.872960000000     0.0385895  
H503     H      0.189830000000     0.624170000000     0.814740000000     0.0451577  
H504     H      0.121500000000     0.572880000000     0.971520000000     0.0405101  
H505     H      0.187890000000     0.707300000000     0.830150000000     0.0568324  
H506     H      0.126980000000     0.553290000000     0.888560000000     0.0392007  
H507     H      0.124290000000     0.614090000000     0.947110000000     0.0372871  
H508     H      0.090590000000     0.527620000000     0.914070000000     0.0502139  
H509     H      0.228050000000     0.650100000000     0.790640000000     0.0612355  
H510     H      0.127690000000     0.646630000000     0.849420000000     0.0507613  
H511     H      0.220420000000     0.711660000000     0.848060000000     0.0480564  
H512     H      0.184820000000     0.591800000000     0.911780000000     0.0470179  
H513     H      0.217440000000     0.668010000000     0.868040000000     0.0387564  
H514     H      0.087720000000     0.588990000000     0.973160000000     0.0471127  
H515     H      0.094430000000     0.571180000000     0.893760000000     0.0421861  
H516     H      0.092880000000     0.606720000000     0.927930000000     0.040981   
H517     H      0.208670000000     0.621800000000     0.880320000000     0.0431245  
H518     H      0.220360000000     0.632620000000     0.834360000000     0.0390433  
H519     H      0.123420000000     0.531600000000     0.931720000000     0.0410715  
H520     H      0.143200000000     0.661210000000     0.799450000000     0.153836   
H521     H      0.145220000000     0.839920000000     0.667400000000     0.0452723  
H522     H      0.111070000000     0.931490000000     0.632480000000     0.0392506  
H523     H      0.107800000000     0.870470000000     0.574180000000     0.044096   
H524     H      0.249040000000     0.854430000000     0.688970000000     0.0419996  
H525     H      0.063430000000     0.932480000000     0.615200000000     0.057436   
H526     H      0.199820000000     0.814830000000     0.629470000000     0.0379951  
H527     H      0.202450000000     0.873970000000     0.689740000000     0.0382131  
H528     H      0.228970000000     0.784840000000     0.658300000000     0.0480689  
H529     H      0.079580000000     0.900510000000     0.543640000000     0.0582227  
H530     H      0.105740000000     0.862530000000     0.645040000000     0.0497383  
H531     H      0.082010000000     0.960800000000     0.602830000000     0.0474139  
H532     H      0.204460000000     0.883050000000     0.618220000000     0.0474641  
H533     H      0.126220000000     0.936830000000     0.599650000000     0.0382174  
H534     H      0.231480000000     0.844260000000     0.719230000000     0.0477079  
H535     H      0.184270000000     0.808300000000     0.661920000000     0.0415766  
H536     H      0.185750000000     0.842750000000     0.697010000000     0.041141   
H537     H      0.164990000000     0.905560000000     0.595750000000     0.0430038  
H538     H      0.124170000000     0.901400000000     0.566000000000     0.0375223  
H539     H      0.247260000000     0.814020000000     0.647480000000     0.0418353  
H540     H      0.059610000000     0.864360000000     0.614930000000     0.153618   
H541     H      0.452530000000     0.616310000000     0.620350000000     0.0445203  
H542     H      0.372790000000     0.687060000000     0.633130000000     0.039685   
H543     H      0.378630000000     0.630140000000     0.695490000000     0.0462286  
H544     H      0.424980000000     0.566200000000     0.536400000000     0.0416143  
H545     H      0.375410000000     0.711510000000     0.674920000000     0.0560625  
H546     H      0.425420000000     0.552430000000     0.619520000000     0.0397453  
H547     H      0.424810000000     0.609640000000     0.557160000000     0.0376925  
H548     H      0.458590000000     0.524140000000     0.593210000000     0.0512062  
H549     H      0.344520000000     0.656840000000     0.723380000000     0.0689854  
H550     H      0.433440000000     0.648960000000     0.651970000000     0.0508418  
H551     H      0.340620000000     0.714790000000     0.661100000000     0.0506994  
H552     H      0.367750000000     0.591400000000     0.600750000000     0.0498767  
H553     H      0.341270000000     0.669840000000     0.643730000000     0.0470273  
H554     H      0.458160000000     0.582270000000     0.529990000000     0.0484129  
H555     H      0.458100000000     0.569080000000     0.611430000000     0.0422988  
H556     H      0.457740000000     0.603160000000     0.574300000000     0.041638   
H557     H      0.348660000000     0.623900000000     0.632600000000     0.0509394  
H558     H      0.344950000000     0.636400000000     0.680090000000     0.054894   
H559     H      0.425240000000     0.529230000000     0.576720000000     0.0461344  
H560     H      0.426340000000     0.667960000000     0.700980000000     0.154186   
H561     H      0.453270000000     0.876010000000     0.889980000000     0.048996   
H562     H      0.369240000000     0.808630000000     0.880020000000     0.0450424  
H563     H      0.381050000000     0.860860000000     0.814270000000     0.0487522  
H564     H      0.424490000000     0.930910000000     0.970140000000     0.0629301  
H565     H      0.372190000000     0.781350000000     0.840390000000     0.0806469  
H566     H      0.430560000000     0.941090000000     0.887220000000     0.0416684  
H567     H      0.423510000000     0.886560000000     0.951660000000     0.047206   
H568     H      0.464740000000     0.968360000000     0.913900000000     0.057814   
H569     H      0.346750000000     0.834040000000     0.786850000000     0.0592845  
H570     H      0.433170000000     0.842370000000     0.859990000000     0.0636021  
H571     H      0.336540000000     0.780700000000     0.852570000000     0.0557563  
H572     H      0.369490000000     0.905890000000     0.905940000000     0.049728   
H573     H      0.339340000000     0.826660000000     0.866880000000     0.0389529  
H574     H      0.456160000000     0.913590000000     0.979600000000     0.062548   
H575     H      0.461620000000     0.923000000000     0.897410000000     0.0554848  
H576     H      0.457610000000     0.891030000000     0.935920000000     0.0482298  
H577     H      0.349430000000     0.872410000000     0.875740000000     0.0441494  
H578     H      0.346470000000     0.857120000000     0.828700000000     0.0385377  
H579     H      0.430080000000     0.966480000000     0.928570000000     0.0421584  
H580     H      0.400810000000     0.780060000000     0.760680000000     0.164864   
H581     H      0.455020000000     0.615910000000     0.885690000000     0.046061   
H582     H      0.377220000000     0.629430000000     0.813380000000     0.0466994  
H583     H      0.375350000000     0.686200000000     0.876120000000     0.0480153  
H584     H      0.431110000000     0.528950000000     0.930710000000     0.0422193  
H585     H      0.377690000000     0.672260000000     0.791960000000     0.0717078  
H586     H      0.427880000000     0.609960000000     0.949660000000     0.0381156  
H587     H      0.430420000000     0.552100000000     0.887990000000     0.039284   
H588     H      0.462130000000     0.583930000000     0.977070000000     0.0485713  
H589     H      0.340760000000     0.713510000000     0.849390000000     0.0602931  
H590     H      0.434530000000     0.648340000000     0.854620000000     0.0630164  
H591     H      0.344290000000     0.656740000000     0.785860000000     0.0599861  
H592     H      0.371180000000     0.590570000000     0.908230000000     0.0473819  
H593     H      0.344210000000     0.636310000000     0.830240000000     0.0406943  
H594     H      0.464890000000     0.525300000000     0.914600000000     0.0513646  
H595     H      0.460960000000     0.604060000000     0.932550000000     0.0422723  
H596     H      0.462450000000     0.569830000000     0.896000000000     0.0428731  
H597     H      0.350700000000     0.623000000000     0.877090000000     0.044042   
H598     H      0.343310000000     0.669490000000     0.866800000000     0.0378685  
H599     H      0.429320000000     0.567010000000     0.971210000000     0.0411152  
H600     H      0.379860000000     0.730910000000     0.790300000000     0.171244   
H601     H      0.143100000000     0.836040000000     0.846850000000     0.0461752  
H602     H      0.108370000000     0.869780000000     0.940970000000     0.0407658  
H603     H      0.107420000000     0.927070000000     0.878780000000     0.0487482  
H604     H      0.246510000000     0.813510000000     0.863570000000     0.0417878  
H605     H      0.061180000000     0.887840000000     0.941710000000     0.0590672  
H606     H      0.198430000000     0.871600000000     0.821640000000     0.0385535  
H607     H      0.199650000000     0.813350000000     0.882830000000     0.0379319  
H608     H      0.227340000000     0.842080000000     0.791700000000     0.0474068  
H609     H      0.079270000000     0.957510000000     0.908620000000     0.0583514  
H610     H      0.103810000000     0.858140000000     0.870060000000     0.0597156  
H611     H      0.079810000000     0.899850000000     0.970570000000     0.0497565  
H612     H      0.202800000000     0.882550000000     0.892190000000     0.0469502  
H613     H      0.124330000000     0.901640000000     0.946570000000     0.0379762  
H614     H      0.228800000000     0.783750000000     0.853590000000     0.048472   
H615     H      0.182500000000     0.839820000000     0.815410000000     0.0417419  
H616     H      0.183340000000     0.805920000000     0.850930000000     0.0419691  
H617     H      0.163530000000     0.904650000000     0.915370000000     0.0432968  
H618     H      0.123410000000     0.934800000000     0.910540000000     0.0369941  
H619     H      0.245640000000     0.853480000000     0.821100000000     0.0419876  
H620     H      0.029890000000     0.888190000000     0.878300000000     0.156821   
H621     H      0.354750000000     0.866870000000     0.640270000000     0.0441203  
H622     H      0.435800000000     0.936390000000     0.628390000000     0.0409834  
H623     H      0.426620000000     0.882350000000     0.563740000000     0.0457803  
H624     H      0.385010000000     0.813600000000     0.721020000000     0.0593008  
H625     H      0.433110000000     0.962570000000     0.587660000000     0.0555703  
H626     H      0.379650000000     0.802400000000     0.638200000000     0.039357   
H627     H      0.384830000000     0.857760000000     0.702100000000     0.0456574  
H628     H      0.346700000000     0.774270000000     0.665110000000     0.0503042  
H629     H      0.460760000000     0.909210000000     0.536220000000     0.0674013  
H630     H      0.373720000000     0.900390000000     0.609520000000     0.0495857  
H631     H      0.468260000000     0.964330000000     0.600960000000     0.0511242  
H632     H      0.439420000000     0.839360000000     0.656390000000     0.0533389  
H633     H      0.466540000000     0.918800000000     0.616440000000     0.0493101  
H634     H      0.352770000000     0.830150000000     0.730200000000     0.059263   
H635     H      0.347920000000     0.819630000000     0.648190000000     0.0413022  
H636     H      0.350920000000     0.852320000000     0.686310000000     0.0421346  
H637     H      0.458380000000     0.872720000000     0.625450000000     0.0528394  
H638     H      0.460890000000     0.886940000000     0.578590000000     0.0556232  
H639     H      0.381080000000     0.777750000000     0.680080000000     0.0469879  
H640     H      0.380160000000     0.922230000000     0.561580000000     0.152697   
H641     H      0.660180000000     0.089490000000     0.097580000000     0.043387   
H642     H      0.695070000000     0.181080000000     0.131000000000     0.0386467  
H643     H      0.698070000000     0.121020000000     0.190340000000     0.0507495  
H644     H      0.556670000000     0.105070000000     0.076040000000     0.0419834  
H645     H      0.742920000000     0.181920000000     0.147600000000     0.0557559  
H646     H      0.605050000000     0.065010000000     0.135190000000     0.0394256  
H647     H      0.603330000000     0.124680000000     0.075380000000     0.0375647  
H648     H      0.575970000000     0.035400000000     0.105920000000     0.0478274  
H649     H      0.727250000000     0.151080000000     0.219950000000     0.0715172  
H650     H      0.699920000000     0.112030000000     0.119530000000     0.0484607  
H651     H      0.724860000000     0.210530000000     0.159970000000     0.0485281  
H652     H      0.601500000000     0.133600000000     0.146490000000     0.0499319  
H653     H      0.680420000000     0.187100000000     0.163930000000     0.0429209  
H654     H      0.574250000000     0.095660000000     0.045510000000     0.0474672  
H655     H      0.620980000000     0.058550000000     0.102890000000     0.0402238  
H656     H      0.619950000000     0.093470000000     0.067860000000     0.0394405  
H657     H      0.641290000000     0.156040000000     0.168560000000     0.0486601  
H658     H      0.682420000000     0.152380000000     0.198110000000     0.0533406  
H659     H      0.557830000000     0.064790000000     0.116440000000     0.0428841  
H660     H      0.746070000000     0.113690000000     0.148810000000     0.153192   
H661     H      0.603830000000     0.116700000000     0.380960000000     0.0452298  
H662     H      0.684370000000     0.185130000000     0.372960000000     0.0386079  
H663     H      0.689830000000     0.124170000000     0.314740000000     0.0451951  
H664     H      0.621500000000     0.072880000000     0.471510000000     0.0404712  
H665     H      0.687890000000     0.207300000000     0.330150000000     0.056875   
H666     H      0.626980000000     0.053290000000     0.388560000000     0.0392956  
H667     H      0.624290000000     0.114090000000     0.447110000000     0.0373002  
H668     H      0.590590000000     0.027620000000     0.414070000000     0.0503646  
H669     H      0.728050000000     0.150100000000     0.290640000000     0.0612433  
H670     H      0.627690000000     0.146640000000     0.349420000000     0.0508415  
H671     H      0.720420000000     0.211660000000     0.348060000000     0.0480658  
H672     H      0.684820000000     0.091800000000     0.411780000000     0.0470136  
H673     H      0.717430000000     0.168010000000     0.368040000000     0.0387573  
H674     H      0.587720000000     0.088990000000     0.473160000000     0.0471756  
H675     H      0.594430000000     0.071180000000     0.393760000000     0.0423618  
H676     H      0.592880000000     0.106720000000     0.427940000000     0.0411198  
H677     H      0.708680000000     0.121800000000     0.380320000000     0.0430764  
H678     H      0.720360000000     0.132620000000     0.334360000000     0.0390505  
H679     H      0.623420000000     0.031600000000     0.431720000000     0.0410837  
H680     H      0.643200000000     0.161210000000     0.299450000000     0.153917   
H681     H      0.645220000000     0.339920000000     0.167400000000     0.0453062  
H682     H      0.611070000000     0.431490000000     0.132480000000     0.0393866  
H683     H      0.607800000000     0.370470000000     0.074180000000     0.0441182  
H684     H      0.749050000000     0.354430000000     0.188970000000     0.0419897  
H685     H      0.563430000000     0.432480000000     0.115200000000     0.0576559  
H686     H      0.699820000000     0.314830000000     0.129470000000     0.0379703  
H687     H      0.702450000000     0.373970000000     0.189740000000     0.038244   
H688     H      0.728970000000     0.284840000000     0.158300000000     0.0481052  
H689     H      0.579580000000     0.400510000000     0.043640000000     0.0582058  
H690     H      0.605740000000     0.362530000000     0.145040000000     0.0498598  
H691     H      0.582010000000     0.460800000000     0.102830000000     0.0475485  
H692     H      0.704460000000     0.383050000000     0.118220000000     0.0474374  
H693     H      0.626220000000     0.436830000000     0.099650000000     0.0382676  
H694     H      0.731480000000     0.344260000000     0.219230000000     0.0477177  
H695     H      0.684270000000     0.308300000000     0.161920000000     0.0415925  
H696     H      0.685750000000     0.342760000000     0.197010000000     0.0411851  
H697     H      0.664990000000     0.405560000000     0.095750000000     0.0430031  
H698     H      0.624170000000     0.401400000000     0.066000000000     0.0375147  
H699     H      0.747260000000     0.314020000000     0.147480000000     0.0418565  
H700     H      0.559610000000     0.364360000000     0.114930000000     0.153712   
H701     H      0.952530000000     0.116320000000     0.120350000000     0.044706   
H702     H      0.872790000000     0.187060000000     0.133130000000     0.0397089  
H703     H      0.878630000000     0.130140000000     0.195490000000     0.0462855  
H704     H      0.924980000000     0.066190000000     0.036400000000     0.0415734  
H705     H      0.875410000000     0.211510000000     0.174920000000     0.0560987  
H706     H      0.925420000000     0.052430000000     0.119520000000     0.0398622  
H707     H      0.924810000000     0.109640000000     0.057160000000     0.0377223  
H708     H      0.958590000000     0.024140000000     0.093210000000     0.0514045  
H709     H      0.844520000000     0.156840000000     0.223380000000     0.0689956  
H710     H      0.933440000000     0.148960000000     0.151970000000     0.050971   
H711     H      0.840620000000     0.214790000000     0.161100000000     0.0506982  
H712     H      0.867750000000     0.091400000000     0.100750000000     0.0498793  
H713     H      0.841270000000     0.169840000000     0.143730000000     0.047018   
H714     H      0.958160000000     0.082270000000     0.029990000000     0.0484435  
H715     H      0.958100000000     0.069080000000     0.111430000000     0.0425157  
H716     H      0.957740000000     0.103160000000     0.074300000000     0.0418145  
H717     H      0.848660000000     0.123900000000     0.132600000000     0.0509362  
H718     H      0.844950000000     0.136400000000     0.180090000000     0.0549078  
H719     H      0.925240000000     0.029230000000     0.076720000000     0.0461883  
H720     H      0.926340000000     0.167960000000     0.200980000000     0.154305   
H721     H      0.953270000000     0.376010000000     0.389980000000     0.0492648  
H722     H      0.869240000000     0.308630000000     0.380020000000     0.0450548  
H723     H      0.881050000000     0.360860000000     0.314270000000     0.0488213  
H724     H      0.924490000000     0.430910000000     0.470140000000     0.0628445  
H725     H      0.872190000000     0.281350000000     0.340390000000     0.0806589  
H726     H      0.930560000000     0.441090000000     0.387220000000     0.0417994  
H727     H      0.923510000000     0.386560000000     0.451660000000     0.0472195  
H728     H      0.964740000000     0.468360000000     0.413900000000     0.058113   
H729     H      0.846750000000     0.334040000000     0.286850000000     0.0592868  
H730     H      0.933170000000     0.342360000000     0.359990000000     0.0636928  
H731     H      0.836540000000     0.280700000000     0.352570000000     0.0557463  
H732     H      0.869490000000     0.405890000000     0.405940000000     0.0497328  
H733     H      0.839340000000     0.326660000000     0.366880000000     0.0389413  
H734     H      0.956160000000     0.413590000000     0.479600000000     0.0625738  
H735     H      0.961620000000     0.423000000000     0.397410000000     0.0557857  
H736     H      0.957610000000     0.391030000000     0.435920000000     0.0484338  
H737     H      0.849430000000     0.372410000000     0.375740000000     0.0441362  
H738     H      0.846470000000     0.357120000000     0.328700000000     0.0385553  
H739     H      0.930080000000     0.466480000000     0.428570000000     0.042235   
H740     H      0.900810000000     0.280060000000     0.260680000000     0.164992   
H741     H      0.955020000000     0.115910000000     0.385690000000     0.0462323  
H742     H      0.877220000000     0.129430000000     0.313380000000     0.0467777  
H743     H      0.875350000000     0.186200000000     0.376120000000     0.0480379  
H744     H      0.931110000000     0.028950000000     0.430710000000     0.0423007  
H745     H      0.877690000000     0.172260000000     0.291960000000     0.0717315  
H746     H      0.927880000000     0.109960000000     0.449670000000     0.0381224  
H747     H      0.930420000000     0.052100000000     0.387990000000     0.0393984  
H748     H      0.962130000000     0.083930000000     0.477070000000     0.0486165  
H749     H      0.840760000000     0.213510000000     0.349390000000     0.0602965  
H750     H      0.934530000000     0.148340000000     0.354620000000     0.0631514  
H751     H      0.844290000000     0.156740000000     0.285860000000     0.0599869  
H752     H      0.871180000000     0.090570000000     0.408230000000     0.0473795  
H753     H      0.844210000000     0.136310000000     0.330240000000     0.0407151  
H754     H      0.964890000000     0.025300000000     0.414600000000     0.0516264  
H755     H      0.960960000000     0.104060000000     0.432550000000     0.04243    
H756     H      0.962450000000     0.069830000000     0.396000000000     0.0430756  
H757     H      0.850700000000     0.123000000000     0.377090000000     0.0440503  
H758     H      0.843310000000     0.169490000000     0.366800000000     0.0378674  
H759     H      0.929320000000     0.067010000000     0.471210000000     0.0410662  
H760     H      0.879860000000     0.230910000000     0.290300000000     0.171288   
H761     H      0.643100000000     0.336040000000     0.346840000000     0.0462103  
H762     H      0.608370000000     0.369780000000     0.440970000000     0.0407913  
H763     H      0.607420000000     0.427070000000     0.378790000000     0.048812   
H764     H      0.746510000000     0.313510000000     0.363570000000     0.0417744  
H765     H      0.561180000000     0.387840000000     0.441710000000     0.0592267  
H766     H      0.698430000000     0.371600000000     0.321640000000     0.0385939  
H767     H      0.699650000000     0.313350000000     0.382830000000     0.0379243  
H768     H      0.727340000000     0.342080000000     0.291700000000     0.0474158  
H769     H      0.579270000000     0.457510000000     0.408620000000     0.0584505  
H770     H      0.603810000000     0.358140000000     0.370060000000     0.059841   
H771     H      0.579810000000     0.399850000000     0.470570000000     0.049761   
H772     H      0.702800000000     0.382550000000     0.392190000000     0.046937   
H773     H      0.624330000000     0.401640000000     0.446570000000     0.0379418  
H774     H      0.728800000000     0.283750000000     0.353600000000     0.0484636  
H775     H      0.682500000000     0.339820000000     0.315410000000     0.0417902  
H776     H      0.683340000000     0.305920000000     0.350930000000     0.0419996  
H777     H      0.663530000000     0.404650000000     0.415370000000     0.0432889  
H778     H      0.623410000000     0.434800000000     0.410540000000     0.0370124  
H779     H      0.745640000000     0.353480000000     0.321100000000     0.041979   
H780     H      0.529890000000     0.388190000000     0.378300000000     0.157168   
H781     H      0.854750000000     0.366880000000     0.140270000000     0.0441566  
H782     H      0.935800000000     0.436390000000     0.128390000000     0.0411265  
H783     H      0.926620000000     0.382350000000     0.063740000000     0.0458351  
H784     H      0.885010000000     0.313600000000     0.221020000000     0.0593499  
H785     H      0.933110000000     0.462580000000     0.087660000000     0.0555982  
H786     H      0.879650000000     0.302400000000     0.138200000000     0.039391   
H787     H      0.884830000000     0.357750000000     0.202100000000     0.0457418  
H788     H      0.846700000000     0.274270000000     0.165110000000     0.0503063  
H789     H      0.960770000000     0.409210000000     0.036220000000     0.0675153  
H790     H      0.873720000000     0.400390000000     0.109520000000     0.0495877  
H791     H      0.968260000000     0.464340000000     0.100960000000     0.0513454  
H792     H      0.939420000000     0.339360000000     0.156390000000     0.053509   
H793     H      0.966540000000     0.418800000000     0.116440000000     0.0495874  
H794     H      0.852770000000     0.330150000000     0.230200000000     0.059275   
H795     H      0.847920000000     0.319630000000     0.148190000000     0.0412911  
H796     H      0.850910000000     0.352320000000     0.186310000000     0.042136   
H797     H      0.958380000000     0.372720000000     0.125450000000     0.0530677  
H798     H      0.960890000000     0.386940000000     0.078590000000     0.055886   
H799     H      0.881080000000     0.277760000000     0.180080000000     0.0470571  
H800     H      0.880160000000     0.422230000000     0.061580000000     0.152683   
H801     H      0.660180000000     0.089490000000     0.597580000000     0.043409   
H802     H      0.695070000000     0.181080000000     0.631000000000     0.0386639  
H803     H      0.698070000000     0.121020000000     0.690340000000     0.0507489  
H804     H      0.556670000000     0.105070000000     0.576040000000     0.0420019  
H805     H      0.742920000000     0.181920000000     0.647600000000     0.0557646  
H806     H      0.605050000000     0.065010000000     0.635190000000     0.0394254  
H807     H      0.603330000000     0.124680000000     0.575380000000     0.0375975  
H808     H      0.575970000000     0.035400000000     0.605920000000     0.0478307  
H809     H      0.727250000000     0.151080000000     0.719950000000     0.0715283  
H810     H      0.699920000000     0.112030000000     0.619530000000     0.0484742  
H811     H      0.724860000000     0.210530000000     0.659970000000     0.0485361  
H812     H      0.601500000000     0.133600000000     0.646490000000     0.0499351  
H813     H      0.680420000000     0.187100000000     0.663930000000     0.0429251  
H814     H      0.574250000000     0.095660000000     0.545510000000     0.0475256  
H815     H      0.620980000000     0.058550000000     0.602890000000     0.0402376  
H816     H      0.619950000000     0.093470000000     0.567860000000     0.0394785  
H817     H      0.641290000000     0.156040000000     0.668560000000     0.048661   
H818     H      0.682420000000     0.152380000000     0.698110000000     0.0533372  
H819     H      0.557830000000     0.064790000000     0.616440000000     0.0428821  
H820     H      0.746070000000     0.113690000000     0.648810000000     0.153179   
H821     H      0.603830000000     0.116700000000     0.880960000000     0.0452399  
H822     H      0.684370000000     0.185130000000     0.872960000000     0.0386258  
H823     H      0.689830000000     0.124170000000     0.814740000000     0.0451839  
H824     H      0.621500000000     0.072880000000     0.971520000000     0.0405186  
H825     H      0.687890000000     0.207300000000     0.830150000000     0.0568799  
H826     H      0.626980000000     0.053290000000     0.888560000000     0.0393019  
H827     H      0.624290000000     0.114090000000     0.947110000000     0.0373456  
H828     H      0.590590000000     0.027620000000     0.914070000000     0.0503665  
H829     H      0.728050000000     0.150100000000     0.790640000000     0.0612415  
H830     H      0.627690000000     0.146640000000     0.849420000000     0.0508414  
H831     H      0.720420000000     0.211660000000     0.848060000000     0.0480715  
H832     H      0.684820000000     0.091800000000     0.911780000000     0.0470462  
H833     H      0.717430000000     0.168010000000     0.868040000000     0.03877    
H834     H      0.587720000000     0.088990000000     0.973160000000     0.0472352  
H835     H      0.594430000000     0.071180000000     0.893760000000     0.042377   
H836     H      0.592880000000     0.106720000000     0.927930000000     0.0411392  
H837     H      0.708680000000     0.121800000000     0.880320000000     0.0430862  
H838     H      0.720360000000     0.132620000000     0.834360000000     0.0390344  
H839     H      0.623420000000     0.031600000000     0.931720000000     0.0410977  
H840     H      0.643200000000     0.161210000000     0.799450000000     0.153916   
H841     H      0.645220000000     0.339920000000     0.667400000000     0.0453101  
H842     H      0.611070000000     0.431490000000     0.632480000000     0.0393974  
H843     H      0.607800000000     0.370470000000     0.574180000000     0.0441457  
H844     H      0.749040000000     0.354430000000     0.688970000000     0.0420011  
H845     H      0.563430000000     0.432480000000     0.615200000000     0.0576151  
H846     H      0.699820000000     0.314830000000     0.629470000000     0.0379995  
H847     H      0.702450000000     0.373970000000     0.689740000000     0.0382536  
H848     H      0.728970000000     0.284840000000     0.658300000000     0.0480781  
H849     H      0.579580000000     0.400510000000     0.543640000000     0.058261   
H850     H      0.605740000000     0.362530000000     0.645040000000     0.0498587  
H851     H      0.582010000000     0.460800000000     0.602830000000     0.0475186  
H852     H      0.704460000000     0.383050000000     0.618220000000     0.0474598  
H853     H      0.626220000000     0.436830000000     0.599650000000     0.0382933  
H854     H      0.731480000000     0.344260000000     0.719230000000     0.0477188  
H855     H      0.684270000000     0.308300000000     0.661920000000     0.041602   
H856     H      0.685750000000     0.342760000000     0.697010000000     0.0411932  
H857     H      0.664990000000     0.405560000000     0.595750000000     0.0430232  
H858     H      0.624170000000     0.401400000000     0.566000000000     0.0375515  
H859     H      0.747260000000     0.314020000000     0.647480000000     0.0418347  
H860     H      0.559610000000     0.364360000000     0.614930000000     0.153717   
H861     H      0.952530000000     0.116320000000     0.620350000000     0.0447113  
H862     H      0.872790000000     0.187060000000     0.633130000000     0.0397256  
H863     H      0.878630000000     0.130140000000     0.695500000000     0.0462622  
H864     H      0.924980000000     0.066190000000     0.536400000000     0.0416383  
H865     H      0.875410000000     0.211510000000     0.674920000000     0.0561038  
H866     H      0.925420000000     0.052430000000     0.619520000000     0.0398622  
H867     H      0.924810000000     0.109640000000     0.557160000000     0.0377642  
H868     H      0.958590000000     0.024140000000     0.593210000000     0.0514055  
H869     H      0.844520000000     0.156840000000     0.723380000000     0.0690292  
H870     H      0.933440000000     0.148960000000     0.651970000000     0.0509733  
H871     H      0.840620000000     0.214790000000     0.661100000000     0.0507074  
H872     H      0.867750000000     0.091400000000     0.600750000000     0.0499015  
H873     H      0.841270000000     0.169840000000     0.643730000000     0.0470258  
H874     H      0.958160000000     0.082270000000     0.529990000000     0.048522   
H875     H      0.958100000000     0.069080000000     0.611430000000     0.0425138  
H876     H      0.957740000000     0.103160000000     0.574300000000     0.04183    
H877     H      0.848660000000     0.123900000000     0.632610000000     0.0509392  
H878     H      0.844950000000     0.136400000000     0.680090000000     0.0548911  
H879     H      0.925240000000     0.029230000000     0.576720000000     0.0462062  
H880     H      0.926340000000     0.167960000000     0.700980000000     0.154298   
H881     H      0.953270000000     0.376010000000     0.889980000000     0.0492683  
H882     H      0.869240000000     0.308630000000     0.880020000000     0.0450758  
H883     H      0.881050000000     0.360860000000     0.814270000000     0.0488184  
H884     H      0.924490000000     0.430910000000     0.970140000000     0.0629384  
H885     H      0.872190000000     0.281350000000     0.840390000000     0.0806628  
H886     H      0.930560000000     0.441090000000     0.887220000000     0.0418005  
H887     H      0.923510000000     0.386560000000     0.951660000000     0.0472739  
H888     H      0.964740000000     0.468360000000     0.913900000000     0.0581125  
H889     H      0.846750000000     0.334040000000     0.786850000000     0.0592875  
H890     H      0.933170000000     0.342360000000     0.859990000000     0.0637205  
H891     H      0.836540000000     0.280700000000     0.852570000000     0.0557551  
H892     H      0.869490000000     0.405890000000     0.905940000000     0.0497568  
H893     H      0.839340000000     0.326660000000     0.866880000000     0.0389537  
H894     H      0.956160000000     0.413590000000     0.979600000000     0.0626682  
H895     H      0.961620000000     0.423000000000     0.897410000000     0.055784   
H896     H      0.957610000000     0.391030000000     0.935920000000     0.048453   
H897     H      0.849430000000     0.372410000000     0.875740000000     0.0441502  
H898     H      0.846470000000     0.357120000000     0.828700000000     0.0385554  
H899     H      0.930080000000     0.466480000000     0.928570000000     0.0422613  
H900     H      0.900810000000     0.280060000000     0.760680000000     0.16494    
H901     H      0.955020000000     0.115910000000     0.885690000000     0.0462435  
H902     H      0.877220000000     0.129430000000     0.813380000000     0.0467611  
H903     H      0.875350000000     0.186200000000     0.876120000000     0.0480636  
H904     H      0.931110000000     0.028950000000     0.930710000000     0.0423305  
H905     H      0.877690000000     0.172260000000     0.791960000000     0.0717227  
H906     H      0.927880000000     0.109960000000     0.949660000000     0.0381926  
H907     H      0.930420000000     0.052100000000     0.887990000000     0.0393939  
H908     H      0.962130000000     0.083930000000     0.977070000000     0.0486859  
H909     H      0.840760000000     0.213510000000     0.849390000000     0.0602746  
H910     H      0.934530000000     0.148340000000     0.854620000000     0.0631516  
H911     H      0.844290000000     0.156740000000     0.785860000000     0.0599813  
H912     H      0.871180000000     0.090570000000     0.908230000000     0.0474108  
H913     H      0.844210000000     0.136310000000     0.830240000000     0.0407068  
H914     H      0.964890000000     0.025300000000     0.914600000000     0.0516161  
H915     H      0.960960000000     0.104060000000     0.932550000000     0.0424626  
H916     H      0.962450000000     0.069830000000     0.896000000000     0.0430644  
H917     H      0.850700000000     0.123000000000     0.877090000000     0.0440587  
H918     H      0.843310000000     0.169490000000     0.866800000000     0.0378884  
H919     H      0.929320000000     0.067010000000     0.971210000000     0.0411356  
H920     H      0.879860000000     0.230910000000     0.790300000000     0.171284   
H921     H      0.643100000000     0.336040000000     0.846850000000     0.0462405  
H922     H      0.608370000000     0.369780000000     0.940970000000     0.0408299  
H923     H      0.607420000000     0.427070000000     0.878790000000     0.0488374  
H924     H      0.746510000000     0.313510000000     0.863570000000     0.0417832  
H925     H      0.561180000000     0.387840000000     0.941710000000     0.0592647  
H926     H      0.698430000000     0.371600000000     0.821640000000     0.0385902  
H927     H      0.699650000000     0.313350000000     0.882830000000     0.0379496  
H928     H      0.727340000000     0.342080000000     0.791700000000     0.0474218  
H929     H      0.579270000000     0.457510000000     0.908620000000     0.0584515  
H930     H      0.603810000000     0.358140000000     0.870060000000     0.0598372  
H931     H      0.579810000000     0.399850000000     0.970570000000     0.0498342  
H932     H      0.702800000000     0.382550000000     0.892190000000     0.0469582  
H933     H      0.624330000000     0.401640000000     0.946570000000     0.0379795  
H934     H      0.728800000000     0.283750000000     0.853590000000     0.0484762  
H935     H      0.682500000000     0.339820000000     0.815410000000     0.041784   
H936     H      0.683340000000     0.305920000000     0.850930000000     0.0420053  
H937     H      0.663530000000     0.404650000000     0.915370000000     0.0433181  
H938     H      0.623410000000     0.434800000000     0.910540000000     0.0370408  
H939     H      0.745640000000     0.353480000000     0.821100000000     0.0419936  
H940     H      0.529890000000     0.388190000000     0.878300000000     0.157171   
H941     H      0.854750000000     0.366880000000     0.640270000000     0.0441639  
H942     H      0.935800000000     0.436390000000     0.628390000000     0.0411246  
H943     H      0.926620000000     0.382350000000     0.563740000000     0.04586    
H944     H      0.885010000000     0.313600000000     0.721020000000     0.0593421  
H945     H      0.933110000000     0.462580000000     0.587660000000     0.0556042  
H946     H      0.879650000000     0.302400000000     0.638200000000     0.0394059  
H947     H      0.884820000000     0.357750000000     0.702100000000     0.0457469  
H948     H      0.846700000000     0.274270000000     0.665110000000     0.0503231  
H949     H      0.960760000000     0.409210000000     0.536220000000     0.0675688  
H950     H      0.873720000000     0.400390000000     0.609520000000     0.0495986  
H951     H      0.968260000000     0.464340000000     0.600960000000     0.0513446  
H952     H      0.939420000000     0.339360000000     0.656390000000     0.0535118  
H953     H      0.966540000000     0.418800000000     0.616440000000     0.0495854  
H954     H      0.852770000000     0.330150000000     0.730200000000     0.0592706  
H955     H      0.847920000000     0.319630000000     0.648190000000     0.041303   
H956     H      0.850910000000     0.352320000000     0.686310000000     0.0421413  
H957     H      0.958380000000     0.372720000000     0.625450000000     0.0530708  
H958     H      0.960890000000     0.386940000000     0.578590000000     0.0558992  
H959     H      0.881080000000     0.277760000000     0.680080000000     0.0470598  
H960     H      0.880160000000     0.422230000000     0.561580000000     0.152703   
H961     H      0.660180000000     0.589490000000     0.097580000000     0.0433645  
H962     H      0.695070000000     0.681080000000     0.131010000000     0.0386717  
H963     H      0.698070000000     0.621020000000     0.190340000000     0.0507335  
H964     H      0.556670000000     0.605070000000     0.076040000000     0.0419857  
H965     H      0.742920000000     0.681920000000     0.147600000000     0.0557525  
H966     H      0.605050000000     0.565010000000     0.135190000000     0.0393883  
H967     H      0.603330000000     0.624680000000     0.075380000000     0.0375659  
H968     H      0.575970000000     0.535400000000     0.105920000000     0.0477615  
H969     H      0.727250000000     0.651080000000     0.219950000000     0.0715134  
H970     H      0.699920000000     0.612030000000     0.119530000000     0.0484461  
H971     H      0.724860000000     0.710530000000     0.159970000000     0.0485261  
H972     H      0.601500000000     0.633600000000     0.146490000000     0.0499276  
H973     H      0.680420000000     0.687100000000     0.163930000000     0.0429335  
H974     H      0.574250000000     0.595660000000     0.045510000000     0.0474658  
H975     H      0.620980000000     0.558550000000     0.102890000000     0.040184   
H976     H      0.619950000000     0.593470000000     0.067860000000     0.039427   
H977     H      0.641290000000     0.656040000000     0.168560000000     0.0486591  
H978     H      0.682420000000     0.652380000000     0.198110000000     0.0533373  
H979     H      0.557830000000     0.564790000000     0.116440000000     0.0428594  
H980     H      0.746070000000     0.613690000000     0.148810000000     0.153174   
H981     H      0.603830000000     0.616700000000     0.380960000000     0.045222   
H982     H      0.684370000000     0.685130000000     0.372960000000     0.0386103  
H983     H      0.689830000000     0.624170000000     0.314740000000     0.0451776  
H984     H      0.621500000000     0.572880000000     0.471520000000     0.040423   
H985     H      0.687890000000     0.707300000000     0.330150000000     0.0568774  
H986     H      0.626980000000     0.553290000000     0.388560000000     0.0392523  
H987     H      0.624290000000     0.614090000000     0.447110000000     0.037302   
H988     H      0.590590000000     0.527620000000     0.414070000000     0.050292   
H989     H      0.728050000000     0.650100000000     0.290640000000     0.0612367  
H990     H      0.627690000000     0.646640000000     0.349420000000     0.0508425  
H991     H      0.720420000000     0.711660000000     0.348060000000     0.0480682  
H992     H      0.684820000000     0.591800000000     0.411780000000     0.0469835  
H993     H      0.717430000000     0.668010000000     0.368040000000     0.038756   
H994     H      0.587720000000     0.588990000000     0.473160000000     0.0471604  
H995     H      0.594430000000     0.571180000000     0.393760000000     0.0423459  
H996     H      0.592880000000     0.606720000000     0.427940000000     0.0411245  
H997     H      0.708680000000     0.621800000000     0.380320000000     0.0431021  
H998     H      0.720360000000     0.632620000000     0.334360000000     0.0390378  
H999     H      0.623420000000     0.531600000000     0.431720000000     0.0410121  
H1000    H      0.643200000000     0.661210000000     0.299450000000     0.153911   
H1001    H      0.645220000000     0.839920000000     0.167400000000     0.0453379  
H1002    H      0.611070000000     0.931490000000     0.132480000000     0.0393164  
H1003    H      0.607800000000     0.870470000000     0.074180000000     0.0441191  
H1004    H      0.749040000000     0.854430000000     0.188970000000     0.0419953  
H1005    H      0.563430000000     0.932480000000     0.115200000000     0.0576429  
H1006    H      0.699820000000     0.814830000000     0.129470000000     0.0379851  
H1007    H      0.702450000000     0.873970000000     0.189740000000     0.0382186  
H1008    H      0.728970000000     0.784840000000     0.158300000000     0.0481037  
H1009    H      0.579580000000     0.900510000000     0.043640000000     0.0581991  
H1010    H      0.605740000000     0.862530000000     0.145040000000     0.0498502  
H1011    H      0.582010000000     0.960800000000     0.102830000000     0.0474951  
H1012    H      0.704460000000     0.883050000000     0.118220000000     0.0474299  
H1013    H      0.626220000000     0.936830000000     0.099650000000     0.038194   
H1014    H      0.731480000000     0.844260000000     0.219230000000     0.047721   
H1015    H      0.684270000000     0.808300000000     0.161920000000     0.0416056  
H1016    H      0.685750000000     0.842750000000     0.197010000000     0.0411681  
H1017    H      0.664990000000     0.905560000000     0.095750000000     0.0429785  
H1018    H      0.624170000000     0.901400000000     0.066000000000     0.0375006  
H1019    H      0.747260000000     0.814020000000     0.147480000000     0.0418516  
H1020    H      0.559610000000     0.864360000000     0.114930000000     0.153714   
H1021    H      0.952530000000     0.616320000000     0.120350000000     0.0447019  
H1022    H      0.872790000000     0.687060000000     0.133130000000     0.0397115  
H1023    H      0.878630000000     0.630140000000     0.195490000000     0.0462723  
H1024    H      0.924980000000     0.566200000000     0.036400000000     0.0415412  
H1025    H      0.875410000000     0.711510000000     0.174920000000     0.0561017  
H1026    H      0.925420000000     0.552430000000     0.119520000000     0.0398174  
H1027    H      0.924810000000     0.609640000000     0.057160000000     0.0377196  
H1028    H      0.958590000000     0.524140000000     0.093210000000     0.0513224  
H1029    H      0.844520000000     0.656840000000     0.223380000000     0.0689855  
H1030    H      0.933440000000     0.648960000000     0.151970000000     0.0509702  
H1031    H      0.840620000000     0.714790000000     0.161100000000     0.0507001  
H1032    H      0.867750000000     0.591400000000     0.100750000000     0.0498532  
H1033    H      0.841270000000     0.669840000000     0.143730000000     0.0470173  
H1034    H      0.958160000000     0.582270000000     0.029990000000     0.0484426  
H1035    H      0.958100000000     0.569080000000     0.111430000000     0.0425     
H1036    H      0.957740000000     0.603160000000     0.074300000000     0.0418172  
H1037    H      0.848660000000     0.623900000000     0.132600000000     0.0509269  
H1038    H      0.844950000000     0.636400000000     0.180090000000     0.0548986  
H1039    H      0.925240000000     0.529230000000     0.076720000000     0.0461108  
H1040    H      0.926340000000     0.667960000000     0.200980000000     0.154299   
H1041    H      0.953270000000     0.876010000000     0.389980000000     0.0492574  
H1042    H      0.869240000000     0.808630000000     0.380020000000     0.0450574  
H1043    H      0.881050000000     0.860860000000     0.314270000000     0.0488023  
H1044    H      0.924490000000     0.930910000000     0.470140000000     0.0628223  
H1045    H      0.872190000000     0.781350000000     0.340390000000     0.0806604  
H1046    H      0.930560000000     0.941090000000     0.387220000000     0.0417715  
H1047    H      0.923510000000     0.886560000000     0.451660000000     0.0472227  
H1048    H      0.964740000000     0.968360000000     0.413900000000     0.058005   
H1049    H      0.846750000000     0.834040000000     0.286850000000     0.0592846  
H1050    H      0.933170000000     0.842370000000     0.359990000000     0.063717   
H1051    H      0.836540000000     0.780700000000     0.352570000000     0.0557486  
H1052    H      0.869490000000     0.905890000000     0.405940000000     0.0497052  
H1053    H      0.839340000000     0.826660000000     0.366880000000     0.0389389  
H1054    H      0.956160000000     0.913590000000     0.479600000000     0.0625643  
H1055    H      0.961620000000     0.923000000000     0.397410000000     0.0557872  
H1056    H      0.957610000000     0.891030000000     0.435920000000     0.0484376  
H1057    H      0.849430000000     0.872410000000     0.375740000000     0.0441295  
H1058    H      0.846470000000     0.857120000000     0.328700000000     0.0385416  
H1059    H      0.930080000000     0.966480000000     0.428570000000     0.0421255  
H1060    H      0.900810000000     0.780060000000     0.260680000000     0.165      
H1061    H      0.955020000000     0.615910000000     0.385690000000     0.0462285  
H1062    H      0.877220000000     0.629430000000     0.313380000000     0.0467616  
H1063    H      0.875350000000     0.686200000000     0.376120000000     0.0480387  
H1064    H      0.931110000000     0.528950000000     0.430710000000     0.0422205  
H1065    H      0.877690000000     0.672260000000     0.291960000000     0.0717246  
H1066    H      0.927880000000     0.609960000000     0.449670000000     0.0381205  
H1067    H      0.930420000000     0.552100000000     0.387990000000     0.0393524  
H1068    H      0.962130000000     0.583930000000     0.477070000000     0.0486143  
H1069    H      0.840760000000     0.713510000000     0.349390000000     0.060303   
H1070    H      0.934530000000     0.648340000000     0.354620000000     0.0631456  
H1071    H      0.844290000000     0.656740000000     0.285860000000     0.0599834  
H1072    H      0.871180000000     0.590570000000     0.408230000000     0.0473538  
H1073    H      0.844210000000     0.636310000000     0.330240000000     0.0407051  
H1074    H      0.964890000000     0.525300000000     0.414600000000     0.0515452  
H1075    H      0.960960000000     0.604060000000     0.432550000000     0.0424309  
H1076    H      0.962450000000     0.569830000000     0.396000000000     0.0430578  
H1077    H      0.850700000000     0.623000000000     0.377090000000     0.0440257  
H1078    H      0.843310000000     0.669490000000     0.366800000000     0.0378655  
H1079    H      0.929320000000     0.567010000000     0.471210000000     0.0410379  
H1080    H      0.879860000000     0.730910000000     0.290300000000     0.171286   
H1081    H      0.643100000000     0.836040000000     0.346840000000     0.04621    
H1082    H      0.608370000000     0.869780000000     0.440970000000     0.0407928  
H1083    H      0.607420000000     0.927070000000     0.378790000000     0.0487848  
H1084    H      0.746510000000     0.813510000000     0.363570000000     0.0417726  
H1085    H      0.561180000000     0.887840000000     0.441710000000     0.0592376  
H1086    H      0.698430000000     0.871600000000     0.321640000000     0.0385751  
H1087    H      0.699650000000     0.813350000000     0.382830000000     0.0379255  
H1088    H      0.727340000000     0.842080000000     0.291700000000     0.0474082  
H1089    H      0.579270000000     0.957510000000     0.408620000000     0.0583949  
H1090    H      0.603810000000     0.858140000000     0.370060000000     0.05984    
H1091    H      0.579810000000     0.899850000000     0.470570000000     0.0497599  
H1092    H      0.702800000000     0.882550000000     0.392190000000     0.0469198  
H1093    H      0.624330000000     0.901640000000     0.446570000000     0.0379245  
H1094    H      0.728800000000     0.783750000000     0.353600000000     0.0484657  
H1095    H      0.682500000000     0.839820000000     0.315410000000     0.0417865  
H1096    H      0.683340000000     0.805920000000     0.350930000000     0.0420019  
H1097    H      0.663530000000     0.904650000000     0.415370000000     0.0432662  
H1098    H      0.623410000000     0.934800000000     0.410540000000     0.0369725  
H1099    H      0.745640000000     0.853480000000     0.321100000000     0.0419666  
H1100    H      0.529890000000     0.888190000000     0.378300000000     0.157163   
H1101    H      0.854750000000     0.866870000000     0.140270000000     0.0441452  
H1102    H      0.935800000000     0.936390000000     0.128390000000     0.0410844  
H1103    H      0.926620000000     0.882350000000     0.063740000000     0.0458365  
H1104    H      0.885010000000     0.813600000000     0.221020000000     0.0593577  
H1105    H      0.933110000000     0.962570000000     0.087660000000     0.055566   
H1106    H      0.879650000000     0.802400000000     0.138200000000     0.0393934  
H1107    H      0.884830000000     0.857760000000     0.202100000000     0.0457058  
H1108    H      0.846700000000     0.774270000000     0.165110000000     0.0503084  
H1109    H      0.960770000000     0.909210000000     0.036220000000     0.0675176  
H1110    H      0.873720000000     0.900390000000     0.109520000000     0.04957    
H1111    H      0.968260000000     0.964330000000     0.100960000000     0.051305   
H1112    H      0.939420000000     0.839360000000     0.156390000000     0.0535086  
H1113    H      0.966540000000     0.918800000000     0.116440000000     0.0495711  
H1114    H      0.852770000000     0.830150000000     0.230200000000     0.059274   
H1115    H      0.847920000000     0.819630000000     0.148190000000     0.0412881  
H1116    H      0.850910000000     0.852320000000     0.186310000000     0.0421135  
H1117    H      0.958380000000     0.872720000000     0.125450000000     0.0530652  
H1118    H      0.960890000000     0.886940000000     0.078590000000     0.0558875  
H1119    H      0.881080000000     0.777760000000     0.180080000000     0.0470604  
H1120    H      0.880160000000     0.922230000000     0.061580000000     0.152675   
H1121    H      0.660180000000     0.589490000000     0.597580000000     0.0433862  
H1122    H      0.695070000000     0.681080000000     0.631000000000     0.0386656  
H1123    H      0.698070000000     0.621020000000     0.690340000000     0.0507327  
H1124    H      0.556670000000     0.605070000000     0.576040000000     0.0420042  
H1125    H      0.742920000000     0.681920000000     0.647600000000     0.0557647  
H1126    H      0.605050000000     0.565010000000     0.635190000000     0.039388   
H1127    H      0.603330000000     0.624680000000     0.575380000000     0.0375986  
H1128    H      0.575970000000     0.535400000000     0.605920000000     0.0477643  
H1129    H      0.727250000000     0.651080000000     0.719950000000     0.0715247  
H1130    H      0.699920000000     0.612030000000     0.619530000000     0.0484595  
H1131    H      0.724860000000     0.710530000000     0.659970000000     0.0485381  
H1132    H      0.601500000000     0.633600000000     0.646490000000     0.0499307  
H1133    H      0.680420000000     0.687100000000     0.663930000000     0.0429272  
H1134    H      0.574250000000     0.595660000000     0.545510000000     0.0475234  
H1135    H      0.620980000000     0.558550000000     0.602890000000     0.0401975  
H1136    H      0.619950000000     0.593470000000     0.567860000000     0.0394643  
H1137    H      0.641290000000     0.656040000000     0.668560000000     0.0486602  
H1138    H      0.682420000000     0.652380000000     0.698110000000     0.0533334  
H1139    H      0.557830000000     0.564790000000     0.616440000000     0.0428573  
H1140    H      0.746070000000     0.613690000000     0.648810000000     0.153162   
H1141    H      0.603830000000     0.616700000000     0.880960000000     0.045227   
H1142    H      0.684370000000     0.685130000000     0.872960000000     0.0386281  
H1143    H      0.689830000000     0.624170000000     0.814740000000     0.045166   
H1144    H      0.621500000000     0.572880000000     0.971520000000     0.0404995  
H1145    H      0.687890000000     0.707300000000     0.830150000000     0.0568822  
H1146    H      0.626980000000     0.553290000000     0.888560000000     0.0392615  
H1147    H      0.624290000000     0.614090000000     0.947110000000     0.0373386  
H1148    H      0.590590000000     0.527620000000     0.914070000000     0.0502983  
H1149    H      0.728050000000     0.650100000000     0.790640000000     0.0612348  
H1150    H      0.627690000000     0.646640000000     0.849420000000     0.050842   
H1151    H      0.720420000000     0.711660000000     0.848060000000     0.0480738  
H1152    H      0.684820000000     0.591800000000     0.911780000000     0.0470155  
H1153    H      0.717430000000     0.668010000000     0.868040000000     0.0387687  
H1154    H      0.587720000000     0.588990000000     0.973160000000     0.0472296  
H1155    H      0.594430000000     0.571180000000     0.893760000000     0.0423602  
H1156    H      0.592880000000     0.606720000000     0.927930000000     0.0411285  
H1157    H      0.708680000000     0.621800000000     0.880320000000     0.0430781  
H1158    H      0.720360000000     0.632620000000     0.834360000000     0.0390215  
H1159    H      0.623420000000     0.531600000000     0.931720000000     0.0410434  
H1160    H      0.643200000000     0.661210000000     0.799450000000     0.15391    
H1161    H      0.645220000000     0.839920000000     0.667400000000     0.0453418  
H1162    H      0.611070000000     0.931490000000     0.632480000000     0.0393275  
H1163    H      0.607800000000     0.870470000000     0.574180000000     0.0441472  
H1164    H      0.749040000000     0.854430000000     0.688970000000     0.0419928  
H1165    H      0.563430000000     0.932480000000     0.615200000000     0.0575999  
H1166    H      0.699820000000     0.814830000000     0.629470000000     0.0380144  
H1167    H      0.702450000000     0.873970000000     0.689740000000     0.0382312  
H1168    H      0.728970000000     0.784840000000     0.658300000000     0.0480762  
H1169    H      0.579580000000     0.900510000000     0.543640000000     0.0582519  
H1170    H      0.605740000000     0.862530000000     0.645040000000     0.0498491  
H1171    H      0.582010000000     0.960800000000     0.602830000000     0.0474613  
H1172    H      0.704460000000     0.883050000000     0.618220000000     0.0474521  
H1173    H      0.626220000000     0.936830000000     0.599650000000     0.0382194  
H1174    H      0.731480000000     0.844260000000     0.719230000000     0.0477135  
H1175    H      0.684270000000     0.808300000000     0.661920000000     0.0416151  
H1176    H      0.685750000000     0.842750000000     0.697010000000     0.041178   
H1177    H      0.664990000000     0.905560000000     0.595750000000     0.0429983  
H1178    H      0.624170000000     0.901400000000     0.566000000000     0.0375373  
H1179    H      0.747260000000     0.814020000000     0.647480000000     0.0418291  
H1180    H      0.559610000000     0.864360000000     0.614930000000     0.153719   
H1181    H      0.952530000000     0.616310000000     0.620350000000     0.0447039  
H1182    H      0.872790000000     0.687060000000     0.633130000000     0.0397282  
H1183    H      0.878630000000     0.630140000000     0.695500000000     0.0462489  
H1184    H      0.924980000000     0.566200000000     0.536400000000     0.0416066  
H1185    H      0.875410000000     0.711510000000     0.674920000000     0.0561069  
H1186    H      0.925420000000     0.552430000000     0.619520000000     0.0398171  
H1187    H      0.924810000000     0.609640000000     0.557160000000     0.0377617  
H1188    H      0.958590000000     0.524140000000     0.593210000000     0.0513233  
H1189    H      0.844520000000     0.656840000000     0.723380000000     0.0690191  
H1190    H      0.933440000000     0.648960000000     0.651970000000     0.050974   
H1191    H      0.840620000000     0.714790000000     0.661100000000     0.0507092  
H1192    H      0.867750000000     0.591400000000     0.600750000000     0.049875   
H1193    H      0.841270000000     0.669840000000     0.643730000000     0.0470251  
H1194    H      0.958160000000     0.582270000000     0.529990000000     0.0485205  
H1195    H      0.958100000000     0.569080000000     0.611430000000     0.0424963  
H1196    H      0.957740000000     0.603160000000     0.574300000000     0.0418325  
H1197    H      0.848660000000     0.623900000000     0.632610000000     0.0509301  
H1198    H      0.844950000000     0.636400000000     0.680090000000     0.0548819  
H1199    H      0.925240000000     0.529230000000     0.576720000000     0.0461288  
H1200    H      0.926340000000     0.667960000000     0.700980000000     0.154292   
H1201    H      0.953270000000     0.876010000000     0.889980000000     0.0492593  
H1202    H      0.869240000000     0.808630000000     0.880020000000     0.0450782  
H1203    H      0.881050000000     0.860860000000     0.814270000000     0.0487997  
H1204    H      0.924490000000     0.930910000000     0.970140000000     0.0629159  
H1205    H      0.872190000000     0.781350000000     0.840390000000     0.0806644  
H1206    H      0.930560000000     0.941090000000     0.887220000000     0.0417723  
H1207    H      0.923510000000     0.886560000000     0.951660000000     0.0472751  
H1208    H      0.964740000000     0.968360000000     0.913900000000     0.0580045  
H1209    H      0.846750000000     0.834040000000     0.786850000000     0.0592853  
H1210    H      0.933170000000     0.842370000000     0.859990000000     0.0637448  
H1211    H      0.836540000000     0.780700000000     0.852570000000     0.0557574  
H1212    H      0.869490000000     0.905890000000     0.905940000000     0.0497294  
H1213    H      0.839340000000     0.826660000000     0.866880000000     0.0389512  
H1214    H      0.956160000000     0.913590000000     0.979600000000     0.0626596  
H1215    H      0.961620000000     0.923000000000     0.897410000000     0.0557854  
H1216    H      0.957610000000     0.891030000000     0.935920000000     0.0484574  
H1217    H      0.849430000000     0.872410000000     0.875740000000     0.0441426  
H1218    H      0.846470000000     0.857120000000     0.828700000000     0.0385417  
H1219    H      0.930080000000     0.966480000000     0.928570000000     0.042152   
H1220    H      0.900810000000     0.780060000000     0.760680000000     0.164948   
H1221    H      0.955020000000     0.615910000000     0.885690000000     0.0462338  
H1222    H      0.877220000000     0.629430000000     0.813380000000     0.0467449  
H1223    H      0.875350000000     0.686200000000     0.876120000000     0.0480644  
H1224    H      0.931110000000     0.528950000000     0.930710000000     0.0422197  
H1225    H      0.877690000000     0.672260000000     0.791960000000     0.0717157  
H1226    H      0.927880000000     0.609960000000     0.949660000000     0.038183   
H1227    H      0.930420000000     0.552100000000     0.887990000000     0.0393625  
H1228    H      0.962130000000     0.583930000000     0.977070000000     0.0486907  
H1229    H      0.840760000000     0.713510000000     0.849390000000     0.0602811  
H1230    H      0.934530000000     0.648340000000     0.854620000000     0.0631487  
H1231    H      0.844290000000     0.656740000000     0.785860000000     0.0599778  
H1232    H      0.871180000000     0.590570000000     0.908230000000     0.0473792  
H1233    H      0.844210000000     0.636310000000     0.830240000000     0.0406967  
H1234    H      0.964890000000     0.525300000000     0.914600000000     0.0515083  
H1235    H      0.960960000000     0.604060000000     0.932550000000     0.0424547  
H1236    H      0.962450000000     0.569830000000     0.896000000000     0.0430639  
H1237    H      0.850700000000     0.623000000000     0.877090000000     0.0440371  
H1238    H      0.843310000000     0.669490000000     0.866800000000     0.0378864  
H1239    H      0.929320000000     0.567010000000     0.971210000000     0.0411107  
H1240    H      0.879860000000     0.730910000000     0.790300000000     0.171282   
H1241    H      0.643100000000     0.836040000000     0.846850000000     0.0462501  
H1242    H      0.608370000000     0.869780000000     0.940970000000     0.0408303  
H1243    H      0.607420000000     0.927070000000     0.878790000000     0.0488087  
H1244    H      0.746510000000     0.813510000000     0.863570000000     0.0417814  
H1245    H      0.561180000000     0.887840000000     0.941710000000     0.0592728  
H1246    H      0.698430000000     0.871600000000     0.821640000000     0.0385712  
H1247    H      0.699650000000     0.813350000000     0.882830000000     0.0379506  
H1248    H      0.727340000000     0.842080000000     0.791700000000     0.0474143  
H1249    H      0.579270000000     0.957510000000     0.908620000000     0.0583986  
H1250    H      0.603800000000     0.858140000000     0.870060000000     0.0598016  
H1251    H      0.579810000000     0.899850000000     0.970570000000     0.0498385  
H1252    H      0.702800000000     0.882550000000     0.892190000000     0.0469442  
H1253    H      0.624330000000     0.901640000000     0.946570000000     0.0379646  
H1254    H      0.728800000000     0.783750000000     0.853590000000     0.0484783  
H1255    H      0.682500000000     0.839820000000     0.815410000000     0.0417801  
H1256    H      0.683340000000     0.805920000000     0.850930000000     0.0420074  
H1257    H      0.663530000000     0.904650000000     0.915370000000     0.0432918  
H1258    H      0.623410000000     0.934800000000     0.910540000000     0.0370022  
H1259    H      0.745640000000     0.853480000000     0.821100000000     0.0419812  
H1260    H      0.529890000000     0.888190000000     0.878300000000     0.157166   
H1261    H      0.854750000000     0.866870000000     0.640270000000     0.0441523  
H1262    H      0.935800000000     0.936390000000     0.628390000000     0.0410827  
H1263    H      0.926620000000     0.882350000000     0.563740000000     0.0458633  
H1264    H      0.885010000000     0.813600000000     0.721020000000     0.0593499  
H1265    H      0.933110000000     0.962570000000     0.587660000000     0.0555715  
H1266    H      0.879650000000     0.802400000000     0.638200000000     0.0394082  
H1267    H      0.884820000000     0.857760000000     0.702100000000     0.0457108  
H1268    H      0.846700000000     0.774270000000     0.665110000000     0.0503251  
H1269    H      0.960770000000     0.909210000000     0.536220000000     0.0675716  
H1270    H      0.873720000000     0.900390000000     0.609520000000     0.0495809  
H1271    H      0.968260000000     0.964330000000     0.600960000000     0.0513039  
H1272    H      0.939420000000     0.839360000000     0.656390000000     0.0535115  
H1273    H      0.966540000000     0.918800000000     0.616440000000     0.0495689  
H1274    H      0.852770000000     0.830150000000     0.730200000000     0.0592696  
H1275    H      0.847920000000     0.819630000000     0.648190000000     0.0412998  
H1276    H      0.850910000000     0.852320000000     0.686310000000     0.0421185  
H1277    H      0.958380000000     0.872720000000     0.625450000000     0.0530683  
H1278    H      0.960890000000     0.886940000000     0.578590000000     0.0559008  
H1279    H      0.881080000000     0.777760000000     0.680080000000     0.047063   
H1280    H      0.880160000000     0.922230000000     0.561580000000     0.152695   
N1       N      0.233840000000     0.180240000000     0.189240000000    -0.155885   
N2       N      0.197590000000     0.148460000000     0.157860000000    -0.110116   
N3       N      0.103840000000     0.097370000000     0.107900000000    -0.112784   
N4       N      0.069300000000     0.065030000000     0.075360000000    -0.164305   
N5       N      0.221920000000     0.185250000000     0.314020000000    -0.157649   
N6       N      0.182990000000     0.154470000000     0.343740000000    -0.110321   
N7       N      0.129540000000     0.084080000000     0.417590000000    -0.113078   
N8       N      0.090050000000     0.054490000000     0.447800000000    -0.164078   
N9       N      0.073190000000     0.430300000000     0.073720000000    -0.158065   
N10      N      0.108530000000     0.398460000000     0.106160000000    -0.110293   
N11      N      0.201690000000     0.347000000000     0.156950000000    -0.112894   
N12      N      0.236660000000     0.314320000000     0.188780000000    -0.164049   
N13      N      0.344290000000     0.189970000000     0.196320000000    -0.152678   
N14      N      0.379480000000     0.158230000000     0.163610000000    -0.109218   
N15      N      0.421780000000     0.082000000000     0.089280000000    -0.112618   
N16      N      0.458970000000     0.050250000000     0.058770000000    -0.161134   
N17      N      0.343570000000     0.302670000000     0.315930000000    -0.15272    
N18      N      0.379060000000     0.334790000000     0.347850000000    -0.106101   
N19      N      0.423580000000     0.413140000000     0.418490000000    -0.111649   
N20      N      0.460820000000     0.444220000000     0.449550000000    -0.157228   
N21      N      0.344040000000     0.189490000000     0.313850000000    -0.15758    
N22      N      0.380150000000     0.157460000000     0.345130000000    -0.106868   
N23      N      0.425640000000     0.081710000000     0.418030000000    -0.112846   
N24      N      0.463590000000     0.051330000000     0.449020000000    -0.161581   
N25      N      0.071960000000     0.428330000000     0.439220000000    -0.157918   
N26      N      0.106950000000     0.395660000000     0.407300000000    -0.105447   
N27      N      0.199690000000     0.345140000000     0.354870000000    -0.112802   
N28      N      0.234760000000     0.313020000000     0.322560000000    -0.163586   
N29      N      0.463120000000     0.440980000000     0.064890000000    -0.152917   
N30      N      0.427560000000     0.409000000000     0.096890000000    -0.109079   
N31      N      0.385600000000     0.330900000000     0.169170000000    -0.111822   
N32      N      0.349170000000     0.299200000000     0.200350000000    -0.160022   
N33      N      0.233840000000     0.180240000000     0.689230000000    -0.155832   
N34      N      0.197590000000     0.148460000000     0.657860000000    -0.11012    
N35      N      0.103840000000     0.097370000000     0.607900000000    -0.112795   
N36      N      0.069300000000     0.065030000000     0.575360000000    -0.164303   
N37      N      0.221920000000     0.185250000000     0.814020000000    -0.15766    
N38      N      0.182990000000     0.154470000000     0.843740000000    -0.11031    
N39      N      0.129540000000     0.084080000000     0.917580000000    -0.113095   
N40      N      0.090050000000     0.054490000000     0.947800000000    -0.164062   
N41      N      0.073190000000     0.430300000000     0.573720000000    -0.158061   
N42      N      0.108530000000     0.398460000000     0.606160000000    -0.110289   
N43      N      0.201690000000     0.347000000000     0.656940000000    -0.112892   
N44      N      0.236660000000     0.314320000000     0.688780000000    -0.164071   
N45      N      0.344290000000     0.189970000000     0.696320000000    -0.152678   
N46      N      0.379480000000     0.158230000000     0.663610000000    -0.109218   
N47      N      0.421780000000     0.082000000000     0.589280000000    -0.11261    
N48      N      0.458970000000     0.050250000000     0.558770000000    -0.161121   
N49      N      0.343570000000     0.302670000000     0.815930000000    -0.152717   
N50      N      0.379060000000     0.334790000000     0.847850000000    -0.106103   
N51      N      0.423580000000     0.413140000000     0.918490000000    -0.111654   
N52      N      0.460820000000     0.444220000000     0.949550000000    -0.157206   
N53      N      0.344040000000     0.189490000000     0.813850000000    -0.157584   
N54      N      0.380150000000     0.157460000000     0.845130000000    -0.106864   
N55      N      0.425640000000     0.081710000000     0.918020000000    -0.112849   
N56      N      0.463590000000     0.051330000000     0.949020000000    -0.16161    
N57      N      0.071970000000     0.428330000000     0.939220000000    -0.157867   
N58      N      0.106950000000     0.395660000000     0.907290000000    -0.105446   
N59      N      0.199690000000     0.345140000000     0.854870000000    -0.112799   
N60      N      0.234760000000     0.313020000000     0.822560000000    -0.163585   
N61      N      0.463120000000     0.440980000000     0.564890000000    -0.152918   
N62      N      0.427560000000     0.409000000000     0.596890000000    -0.10909    
N63      N      0.385600000000     0.330900000000     0.669170000000    -0.11183    
N64      N      0.349170000000     0.299200000000     0.700350000000    -0.159979   
N65      N      0.233840000000     0.680240000000     0.189230000000    -0.155835   
N66      N      0.197590000000     0.648460000000     0.157860000000    -0.110116   
N67      N      0.103840000000     0.597370000000     0.107900000000    -0.112786   
N68      N      0.069300000000     0.565030000000     0.075360000000    -0.164318   
N69      N      0.221920000000     0.685250000000     0.314020000000    -0.157617   
N70      N      0.182990000000     0.654470000000     0.343740000000    -0.110324   
N71      N      0.129540000000     0.584080000000     0.417590000000    -0.113074   
N72      N      0.090050000000     0.554490000000     0.447800000000    -0.16406    
N73      N      0.073190000000     0.930300000000     0.073720000000    -0.15811    
N74      N      0.108530000000     0.898460000000     0.106160000000    -0.110296   
N75      N      0.201690000000     0.847010000000     0.156950000000    -0.112924   
N76      N      0.236660000000     0.814320000000     0.188780000000    -0.164051   
N77      N      0.344290000000     0.689970000000     0.196320000000    -0.15268    
N78      N      0.379480000000     0.658230000000     0.163610000000    -0.109218   
N79      N      0.421780000000     0.582000000000     0.089280000000    -0.112623   
N80      N      0.458970000000     0.550250000000     0.058770000000    -0.161152   
N81      N      0.343570000000     0.802670000000     0.315930000000    -0.152717   
N82      N      0.379060000000     0.834790000000     0.347850000000    -0.106107   
N83      N      0.423580000000     0.913140000000     0.418490000000    -0.111657   
N84      N      0.460820000000     0.944220000000     0.449550000000    -0.157294   
N85      N      0.344040000000     0.689490000000     0.313850000000    -0.157581   
N86      N      0.380150000000     0.657460000000     0.345130000000    -0.10686    
N87      N      0.425640000000     0.581710000000     0.418030000000    -0.112853   
N88      N      0.463590000000     0.551330000000     0.449020000000    -0.161604   
N89      N      0.071970000000     0.928330000000     0.439220000000    -0.157857   
N90      N      0.106950000000     0.895660000000     0.407300000000    -0.105448   
N91      N      0.199690000000     0.845140000000     0.354870000000    -0.112805   
N92      N      0.234760000000     0.813020000000     0.322560000000    -0.163587   
N93      N      0.463120000000     0.940980000000     0.064890000000    -0.152915   
N94      N      0.427560000000     0.909000000000     0.096890000000    -0.109085   
N95      N      0.385600000000     0.830900000000     0.169170000000    -0.111828   
N96      N      0.349170000000     0.799200000000     0.200350000000    -0.160019   
N97      N      0.233840000000     0.680240000000     0.689230000000    -0.155832   
N98      N      0.197590000000     0.648460000000     0.657860000000    -0.110121   
N99      N      0.103840000000     0.597370000000     0.607900000000    -0.112783   
N100     N      0.069300000000     0.565030000000     0.575360000000    -0.164316   
N101     N      0.221920000000     0.685250000000     0.814020000000    -0.157659   
N102     N      0.182990000000     0.654470000000     0.843740000000    -0.110316   
N103     N      0.129540000000     0.584080000000     0.917580000000    -0.113095   
N104     N      0.090050000000     0.554490000000     0.947800000000    -0.164081   
N105     N      0.073190000000     0.930300000000     0.573720000000    -0.158104   
N106     N      0.108530000000     0.898460000000     0.606160000000    -0.1103     
N107     N      0.201690000000     0.847010000000     0.656940000000    -0.112921   
N108     N      0.236660000000     0.814320000000     0.688780000000    -0.164073   
N109     N      0.344290000000     0.689970000000     0.696320000000    -0.152678   
N110     N      0.379480000000     0.658230000000     0.663610000000    -0.109218   
N111     N      0.421780000000     0.582000000000     0.589280000000    -0.112616   
N112     N      0.458970000000     0.550250000000     0.558770000000    -0.161139   
N113     N      0.343570000000     0.802670000000     0.815930000000    -0.152714   
N114     N      0.379060000000     0.834790000000     0.847850000000    -0.10611    
N115     N      0.423580000000     0.913140000000     0.918490000000    -0.111649   
N116     N      0.460820000000     0.944220000000     0.949550000000    -0.157272   
N117     N      0.344040000000     0.689490000000     0.813850000000    -0.157581   
N118     N      0.380150000000     0.657460000000     0.845130000000    -0.106863   
N119     N      0.425640000000     0.581710000000     0.918030000000    -0.112839   
N120     N      0.463590000000     0.551330000000     0.949020000000    -0.161633   
N121     N      0.071970000000     0.928330000000     0.939220000000    -0.157917   
N122     N      0.106950000000     0.895660000000     0.907290000000    -0.105441   
N123     N      0.199690000000     0.845140000000     0.854870000000    -0.112802   
N124     N      0.234760000000     0.813020000000     0.822560000000    -0.163585   
N125     N      0.463120000000     0.940980000000     0.564890000000    -0.152911   
N126     N      0.427560000000     0.909000000000     0.596890000000    -0.109085   
N127     N      0.385600000000     0.830900000000     0.669170000000    -0.111833   
N128     N      0.349170000000     0.799200000000     0.700350000000    -0.159981   
N129     N      0.733840000000     0.180240000000     0.189230000000    -0.155838   
N130     N      0.697590000000     0.148460000000     0.157860000000    -0.110114   
N131     N      0.603840000000     0.097370000000     0.107900000000    -0.11275    
N132     N      0.569300000000     0.065030000000     0.075360000000    -0.164265   
N133     N      0.721920000000     0.185250000000     0.314020000000    -0.157624   
N134     N      0.682990000000     0.154470000000     0.343740000000    -0.110299   
N135     N      0.629540000000     0.084080000000     0.417590000000    -0.113072   
N136     N      0.590050000000     0.054490000000     0.447800000000    -0.164066   
N137     N      0.573190000000     0.430300000000     0.073720000000    -0.158064   
N138     N      0.608530000000     0.398460000000     0.106160000000    -0.110268   
N139     N      0.701690000000     0.347000000000     0.156950000000    -0.112891   
N140     N      0.736660000000     0.314320000000     0.188780000000    -0.164057   
N141     N      0.844290000000     0.189970000000     0.196320000000    -0.152677   
N142     N      0.879480000000     0.158230000000     0.163610000000    -0.109207   
N143     N      0.921780000000     0.082000000000     0.089280000000    -0.112606   
N144     N      0.958970000000     0.050250000000     0.058770000000    -0.161055   
N145     N      0.843570000000     0.302670000000     0.315930000000    -0.15272    
N146     N      0.879060000000     0.334790000000     0.347850000000    -0.106086   
N147     N      0.923580000000     0.413140000000     0.418490000000    -0.111648   
N148     N      0.960820000000     0.444220000000     0.449550000000    -0.157132   
N149     N      0.844040000000     0.189490000000     0.313850000000    -0.157574   
N150     N      0.880150000000     0.157460000000     0.345130000000    -0.106843   
N151     N      0.925640000000     0.081710000000     0.418030000000    -0.112838   
N152     N      0.963590000000     0.051330000000     0.449020000000    -0.161497   
N153     N      0.571970000000     0.428330000000     0.439220000000    -0.157904   
N154     N      0.606950000000     0.395660000000     0.407290000000    -0.105423   
N155     N      0.699690000000     0.345140000000     0.354870000000    -0.112797   
N156     N      0.734760000000     0.313020000000     0.322550000000    -0.163634   
N157     N      0.963120000000     0.440980000000     0.064890000000    -0.152818   
N158     N      0.927560000000     0.409000000000     0.096890000000    -0.109063   
N159     N      0.885600000000     0.330900000000     0.169170000000    -0.111811   
N160     N      0.849170000000     0.299200000000     0.200350000000    -0.160008   
N161     N      0.733840000000     0.180240000000     0.689230000000    -0.15583    
N162     N      0.697590000000     0.148460000000     0.657860000000    -0.110115   
N163     N      0.603840000000     0.097370000000     0.607900000000    -0.112749   
N164     N      0.569300000000     0.065030000000     0.575360000000    -0.164258   
N165     N      0.721920000000     0.185250000000     0.814020000000    -0.157653   
N166     N      0.682990000000     0.154470000000     0.843740000000    -0.110302   
N167     N      0.629540000000     0.084080000000     0.917580000000    -0.113082   
N168     N      0.590040000000     0.054490000000     0.947800000000    -0.164073   
N169     N      0.573190000000     0.430300000000     0.573720000000    -0.158041   
N170     N      0.608530000000     0.398460000000     0.606160000000    -0.110261   
N171     N      0.701690000000     0.347000000000     0.656940000000    -0.112891   
N172     N      0.736660000000     0.314320000000     0.688780000000    -0.164071   
N173     N      0.844290000000     0.189970000000     0.696320000000    -0.152658   
N174     N      0.879480000000     0.158230000000     0.663610000000    -0.109212   
N175     N      0.921780000000     0.082000000000     0.589280000000    -0.112602   
N176     N      0.958970000000     0.050250000000     0.558770000000    -0.161043   
N177     N      0.843570000000     0.302670000000     0.815930000000    -0.152719   
N178     N      0.879060000000     0.334790000000     0.847850000000    -0.106088   
N179     N      0.923580000000     0.413140000000     0.918490000000    -0.111641   
N180     N      0.960820000000     0.444220000000     0.949550000000    -0.15711    
N181     N      0.844040000000     0.189490000000     0.813850000000    -0.157581   
N182     N      0.880150000000     0.157460000000     0.845130000000    -0.106842   
N183     N      0.925640000000     0.081710000000     0.918020000000    -0.112846   
N184     N      0.963590000000     0.051330000000     0.949020000000    -0.161543   
N185     N      0.571960000000     0.428330000000     0.939220000000    -0.15789    
N186     N      0.606950000000     0.395660000000     0.907290000000    -0.105422   
N187     N      0.699690000000     0.345140000000     0.854870000000    -0.112797   
N188     N      0.734760000000     0.313020000000     0.822560000000    -0.163585   
N189     N      0.963120000000     0.440980000000     0.564890000000    -0.152809   
N190     N      0.927560000000     0.409000000000     0.596890000000    -0.109063   
N191     N      0.885600000000     0.330900000000     0.669170000000    -0.111807   
N192     N      0.849170000000     0.299200000000     0.700350000000    -0.159974   
N193     N      0.733840000000     0.680240000000     0.189230000000    -0.155839   
N194     N      0.697590000000     0.648460000000     0.157860000000    -0.110109   
N195     N      0.603840000000     0.597370000000     0.107900000000    -0.112752   
N196     N      0.569300000000     0.565030000000     0.075360000000    -0.164278   
N197     N      0.721920000000     0.685250000000     0.314020000000    -0.157623   
N198     N      0.682990000000     0.654470000000     0.343740000000    -0.110302   
N199     N      0.629540000000     0.584080000000     0.417590000000    -0.113074   
N200     N      0.590050000000     0.554490000000     0.447800000000    -0.164138   
N201     N      0.573190000000     0.930300000000     0.073720000000    -0.158106   
N202     N      0.608530000000     0.898460000000     0.106160000000    -0.110281   
N203     N      0.701690000000     0.847010000000     0.156950000000    -0.112908   
N204     N      0.736660000000     0.814320000000     0.188780000000    -0.164054   
N205     N      0.844290000000     0.689970000000     0.196320000000    -0.152679   
N206     N      0.879480000000     0.658230000000     0.163610000000    -0.109206   
N207     N      0.921780000000     0.582000000000     0.089280000000    -0.112612   
N208     N      0.958970000000     0.550250000000     0.058770000000    -0.161073   
N209     N      0.843570000000     0.802670000000     0.315930000000    -0.152717   
N210     N      0.879060000000     0.834790000000     0.347850000000    -0.106091   
N211     N      0.923580000000     0.913140000000     0.418490000000    -0.111634   
N212     N      0.960820000000     0.944220000000     0.449550000000    -0.157198   
N213     N      0.844040000000     0.689490000000     0.313850000000    -0.157541   
N214     N      0.880150000000     0.657460000000     0.345130000000    -0.10684    
N215     N      0.925640000000     0.581710000000     0.418030000000    -0.112845   
N216     N      0.963590000000     0.551330000000     0.449020000000    -0.16152    
N217     N      0.571960000000     0.928330000000     0.439220000000    -0.157964   
N218     N      0.606950000000     0.895660000000     0.407290000000    -0.105423   
N219     N      0.699690000000     0.845140000000     0.354870000000    -0.1128     
N220     N      0.734760000000     0.813020000000     0.322550000000    -0.163634   
N221     N      0.963120000000     0.940980000000     0.064890000000    -0.152816   
N222     N      0.927560000000     0.909000000000     0.096890000000    -0.109069   
N223     N      0.885600000000     0.830900000000     0.169170000000    -0.111817   
N224     N      0.849170000000     0.799200000000     0.200350000000    -0.160006   
N225     N      0.733840000000     0.680240000000     0.689230000000    -0.155829   
N226     N      0.697590000000     0.648460000000     0.657860000000    -0.110116   
N227     N      0.603840000000     0.597370000000     0.607900000000    -0.11275    
N228     N      0.569300000000     0.565030000000     0.575360000000    -0.164271   
N229     N      0.721920000000     0.685250000000     0.814020000000    -0.157652   
N230     N      0.682990000000     0.654470000000     0.843740000000    -0.110304   
N231     N      0.629540000000     0.584080000000     0.917590000000    -0.113071   
N232     N      0.590050000000     0.554490000000     0.947800000000    -0.164028   
N233     N      0.573190000000     0.930300000000     0.573720000000    -0.158122   
N234     N      0.608530000000     0.898460000000     0.606160000000    -0.110274   
N235     N      0.701690000000     0.847010000000     0.656940000000    -0.112906   
N236     N      0.736660000000     0.814320000000     0.688780000000    -0.164073   
N237     N      0.844290000000     0.689970000000     0.696320000000    -0.15266    
N238     N      0.879480000000     0.658230000000     0.663610000000    -0.109211   
N239     N      0.921780000000     0.582000000000     0.589280000000    -0.112607   
N240     N      0.958970000000     0.550250000000     0.558770000000    -0.161061   
N241     N      0.843570000000     0.802670000000     0.815930000000    -0.152717   
N242     N      0.879060000000     0.834790000000     0.847850000000    -0.106093   
N243     N      0.923580000000     0.913140000000     0.918490000000    -0.111638   
N244     N      0.960820000000     0.944220000000     0.949550000000    -0.157176   
N245     N      0.844040000000     0.689490000000     0.813850000000    -0.157547   
N246     N      0.880150000000     0.657460000000     0.845130000000    -0.10684    
N247     N      0.925640000000     0.581710000000     0.918030000000    -0.112831   
N248     N      0.963590000000     0.551330000000     0.949020000000    -0.161549   
N249     N      0.571960000000     0.928330000000     0.939220000000    -0.157869   
N250     N      0.606950000000     0.895660000000     0.907290000000    -0.105419   
N251     N      0.699690000000     0.845140000000     0.854870000000    -0.112802   
N252     N      0.734760000000     0.813020000000     0.822560000000    -0.163585   
N253     N      0.963120000000     0.940980000000     0.564890000000    -0.152813   
N254     N      0.927560000000     0.909000000000     0.596890000000    -0.109069   
N255     N      0.885600000000     0.830900000000     0.669170000000    -0.111813   
N256     N      0.849170000000     0.799200000000     0.700350000000    -0.159972   
O1       O      0.493740000000     0.444160000000     0.029370000000    -0.349219   
O2       O      0.495870000000     0.049400000000     0.483190000000    -0.362313   
O3       O      0.493230000000     0.018320000000     0.058760000000    -0.359713   
O4       O      0.495530000000     0.475670000000     0.451580000000    -0.349615   
O5       O      0.493300000000     0.048560000000     0.026370000000    -0.357344   
O6       O      0.492840000000     0.445560000000     0.484020000000    -0.355442   
O7       O      0.496830000000     0.018560000000     0.451400000000    -0.360421   
O8       O      0.496040000000     0.473990000000     0.062090000000    -0.356513   
O9       O      0.049680000000     0.437600000000     0.479090000000    -0.363838   
O10      O      0.048780000000     0.056050000000     0.034710000000    -0.366094   
O11      O      0.051230000000     0.469760000000     0.065370000000    -0.367372   
O12      O      0.059330000000     0.019730000000     0.451260000000    -0.36944    
O13      O      0.058400000000     0.051100000000     0.482530000000    -0.370146   
O14      O      0.050050000000     0.438390000000     0.034090000000    -0.359495   
O15      O      0.050750000000     0.468190000000     0.447020000000    -0.358203   
O16      O      0.049070000000     0.024940000000     0.066280000000    -0.368551   
O17      O      0.540110000000     0.496350000000     0.006650000000    -0.586352   
O18      O      0.314380000000     0.267830000000     0.201500000000    -0.361028   
O19      O      0.311740000000     0.223140000000     0.311020000000    -0.362299   
O20      O      0.314200000000     0.298970000000     0.279600000000    -0.356441   
O21      O      0.314250000000     0.193670000000     0.232280000000    -0.35148    
O22      O      0.311360000000     0.269000000000     0.312180000000    -0.353765   
O23      O      0.311980000000     0.223520000000     0.199580000000    -0.35724    
O24      O      0.313530000000     0.193190000000     0.278400000000    -0.36348    
O25      O      0.316500000000     0.297630000000     0.234260000000    -0.357829   
O26      O      0.256350000000     0.219580000000     0.196950000000    -0.365551   
O27      O      0.257460000000     0.273850000000     0.315010000000    -0.363291   
O28      O      0.259550000000     0.305410000000     0.228350000000    -0.367756   
O29      O      0.253460000000     0.190100000000     0.279470000000    -0.358236   
O30      O      0.250800000000     0.221450000000     0.310650000000    -0.368566   
O31      O      0.258030000000     0.274520000000     0.196600000000    -0.36864    
O32      O      0.258050000000     0.188210000000     0.228190000000    -0.350165   
O33      O      0.257820000000     0.304480000000     0.282940000000    -0.365381   
O34      O      0.269260000000     0.246550000000     0.255490000000    -0.584909   
O35      O      0.257530000000     0.129490000000     0.153130000000    -0.273894   
O36      O      0.252690000000     0.101900000000     0.199990000000    -0.182154   
O37      O      0.287300000000     0.143990000000     0.197420000000    -0.164202   
O38      O      0.153970000000     0.177510000000     0.295430000000    -0.269181   
O39      O      0.175560000000     0.140150000000     0.261700000000    -0.188261   
O40      O      0.193120000000     0.190510000000     0.257710000000    -0.164523   
O41      O      0.048320000000     0.380230000000     0.110450000000    -0.272944   
O42      O      0.052640000000     0.352280000000     0.063790000000    -0.18502    
O43      O      0.019100000000     0.395130000000     0.065980000000    -0.164951   
O44      O      0.415620000000     0.184540000000     0.203770000000    -0.268419   
O45      O      0.400740000000     0.152250000000     0.245250000000    -0.18733    
O46      O      0.382750000000     0.202720000000     0.244500000000    -0.171282   
O47      O      0.382510000000     0.286290000000     0.268010000000    -0.266097   
O48      O      0.413890000000     0.302490000000     0.310850000000    -0.162399   
O49      O      0.405350000000     0.335630000000     0.269050000000    -0.187966   
O50      O      0.379280000000     0.241390000000     0.307080000000    -0.259739   
O51      O      0.413590000000     0.200840000000     0.322140000000    -0.166705   
O52      O      0.396250000000     0.236260000000     0.358980000000    -0.174286   
O53      O      0.047400000000     0.392130000000     0.388470000000    -0.274178   
O54      O      0.052900000000     0.437380000000     0.359400000000    -0.18089    
O55      O      0.018610000000     0.436510000000     0.402800000000    -0.174614   
O56      O      0.391510000000     0.438500000000     0.059230000000    -0.2711     
O57      O      0.403640000000     0.407520000000     0.015970000000    -0.193543   
O58      O      0.423810000000     0.457260000000     0.018340000000    -0.173403   
O59      O      0.493740000000     0.444160000000     0.529370000000    -0.349192   
O60      O      0.495870000000     0.049400000000     0.983190000000    -0.362125   
O61      O      0.493230000000     0.018320000000     0.558760000000    -0.359707   
O62      O      0.495530000000     0.475670000000     0.951580000000    -0.349603   
O63      O      0.493300000000     0.048560000000     0.526370000000    -0.357285   
O64      O      0.492840000000     0.445560000000     0.984020000000    -0.355212   
O65      O      0.496830000000     0.018560000000     0.951410000000    -0.360554   
O66      O      0.496040000000     0.473990000000     0.562090000000    -0.356512   
O67      O      0.049680000000     0.437600000000     0.979090000000    -0.363621   
O68      O      0.048780000000     0.056050000000     0.534710000000    -0.366073   
O69      O      0.051230000000     0.469760000000     0.565370000000    -0.367368   
O70      O      0.059330000000     0.019730000000     0.951260000000    -0.369448   
O71      O      0.058400000000     0.051100000000     0.982530000000    -0.369937   
O72      O      0.050050000000     0.438390000000     0.534090000000    -0.35948    
O73      O      0.050750000000     0.468190000000     0.947020000000    -0.358199   
O74      O      0.049070000000     0.024940000000     0.566280000000    -0.368547   
O75      O      0.540110000000     0.496350000000     0.506650000000    -0.586247   
O76      O      0.314380000000     0.267830000000     0.701490000000    -0.360885   
O77      O      0.311740000000     0.223140000000     0.811020000000    -0.362298   
O78      O      0.314200000000     0.298970000000     0.779600000000    -0.356444   
O79      O      0.314250000000     0.193670000000     0.732280000000    -0.35148    
O80      O      0.311360000000     0.269000000000     0.812180000000    -0.353763   
O81      O      0.311980000000     0.223520000000     0.699580000000    -0.357238   
O82      O      0.313530000000     0.193190000000     0.778400000000    -0.363481   
O83      O      0.316500000000     0.297630000000     0.734260000000    -0.357798   
O84      O      0.256350000000     0.219580000000     0.696950000000    -0.365516   
O85      O      0.257460000000     0.273850000000     0.815010000000    -0.36329    
O86      O      0.259550000000     0.305410000000     0.728350000000    -0.367756   
O87      O      0.253460000000     0.190100000000     0.779470000000    -0.358238   
O88      O      0.250800000000     0.221450000000     0.810650000000    -0.368565   
O89      O      0.258030000000     0.274520000000     0.696600000000    -0.368632   
O90      O      0.258050000000     0.188210000000     0.728190000000    -0.350147   
O91      O      0.257820000000     0.304480000000     0.782940000000    -0.365379   
O92      O      0.269260000000     0.246550000000     0.755490000000    -0.584904   
O93      O      0.257530000000     0.129490000000     0.653130000000    -0.273884   
O94      O      0.252700000000     0.101900000000     0.699990000000    -0.182154   
O95      O      0.287300000000     0.143990000000     0.697420000000    -0.1642     
O96      O      0.153970000000     0.177510000000     0.795430000000    -0.269179   
O97      O      0.175560000000     0.140150000000     0.761700000000    -0.188264   
O98      O      0.193120000000     0.190510000000     0.757710000000    -0.164526   
O99      O      0.048320000000     0.380230000000     0.610450000000    -0.272946   
O100     O      0.052640000000     0.352280000000     0.563790000000    -0.184962   
O101     O      0.019100000000     0.395130000000     0.565980000000    -0.164924   
O102     O      0.415620000000     0.184540000000     0.703770000000    -0.268418   
O103     O      0.400740000000     0.152250000000     0.745250000000    -0.187333   
O104     O      0.382750000000     0.202720000000     0.744500000000    -0.171286   
O105     O      0.382510000000     0.286290000000     0.768020000000    -0.266068   
O106     O      0.413890000000     0.302490000000     0.810850000000    -0.162399   
O107     O      0.405350000000     0.335630000000     0.769050000000    -0.187981   
O108     O      0.379280000000     0.241390000000     0.807080000000    -0.25973    
O109     O      0.413590000000     0.200840000000     0.822140000000    -0.166699   
O110     O      0.396250000000     0.236260000000     0.858980000000    -0.174262   
O111     O      0.047400000000     0.392130000000     0.888470000000    -0.274171   
O112     O      0.052900000000     0.437380000000     0.859400000000    -0.180896   
O113     O      0.018610000000     0.436510000000     0.902800000000    -0.174618   
O114     O      0.391510000000     0.438500000000     0.559230000000    -0.271082   
O115     O      0.403640000000     0.407520000000     0.515970000000    -0.193413   
O116     O      0.423810000000     0.457260000000     0.518340000000    -0.173284   
O117     O      0.493740000000     0.944160000000     0.029370000000    -0.349202   
O118     O      0.495870000000     0.549400000000     0.483190000000    -0.362324   
O119     O      0.493230000000     0.518320000000     0.058760000000    -0.359943   
O120     O      0.495530000000     0.975670000000     0.451580000000    -0.349742   
O121     O      0.493300000000     0.548560000000     0.026370000000    -0.357346   
O122     O      0.492840000000     0.945570000000     0.484020000000    -0.355576   
O123     O      0.496830000000     0.518560000000     0.451400000000    -0.360716   
O124     O      0.496040000000     0.973990000000     0.062090000000    -0.356542   
O125     O      0.049680000000     0.937590000000     0.479090000000    -0.363713   
O126     O      0.048780000000     0.556050000000     0.034710000000    -0.366087   
O127     O      0.051230000000     0.969750000000     0.065370000000    -0.367502   
O128     O      0.059330000000     0.519730000000     0.451260000000    -0.369786   
O129     O      0.058400000000     0.551100000000     0.482530000000    -0.370234   
O130     O      0.050050000000     0.938390000000     0.034090000000    -0.359564   
O131     O      0.050750000000     0.968190000000     0.447020000000    -0.358258   
O132     O      0.049070000000     0.524940000000     0.066280000000    -0.368753   
O133     O      0.540110000000     0.996350000000     0.006650000000    -0.586448   
O134     O      0.314380000000     0.767830000000     0.201500000000    -0.361026   
O135     O      0.311740000000     0.723140000000     0.311020000000    -0.362295   
O136     O      0.314200000000     0.798970000000     0.279600000000    -0.356442   
O137     O      0.314250000000     0.693670000000     0.232280000000    -0.351483   
O138     O      0.311360000000     0.769000000000     0.312180000000    -0.353762   
O139     O      0.311980000000     0.723520000000     0.199580000000    -0.357238   
O140     O      0.313530000000     0.693190000000     0.278400000000    -0.363481   
O141     O      0.316500000000     0.797630000000     0.234260000000    -0.35783    
O142     O      0.256350000000     0.719580000000     0.196950000000    -0.365528   
O143     O      0.257460000000     0.773850000000     0.315010000000    -0.36329    
O144     O      0.259550000000     0.805410000000     0.228350000000    -0.367759   
O145     O      0.253460000000     0.690100000000     0.279470000000    -0.358366   
O146     O      0.250800000000     0.721450000000     0.310650000000    -0.368537   
O147     O      0.258030000000     0.774520000000     0.196600000000    -0.36864    
O148     O      0.258050000000     0.688210000000     0.228190000000    -0.350147   
O149     O      0.257820000000     0.804480000000     0.282940000000    -0.365383   
O150     O      0.269260000000     0.746550000000     0.255490000000    -0.584912   
O151     O      0.257530000000     0.629490000000     0.153130000000    -0.273899   
O152     O      0.252690000000     0.601900000000     0.199990000000    -0.182198   
O153     O      0.287300000000     0.643990000000     0.197420000000    -0.164212   
O154     O      0.153970000000     0.677510000000     0.295430000000    -0.26918    
O155     O      0.175560000000     0.640150000000     0.261700000000    -0.188279   
O156     O      0.193120000000     0.690510000000     0.257710000000    -0.164528   
O157     O      0.048320000000     0.880230000000     0.110450000000    -0.27295    
O158     O      0.052640000000     0.852280000000     0.063790000000    -0.185014   
O159     O      0.019100000000     0.895130000000     0.065980000000    -0.164948   
O160     O      0.415620000000     0.684540000000     0.203770000000    -0.268403   
O161     O      0.400740000000     0.652250000000     0.245250000000    -0.187335   
O162     O      0.382750000000     0.702730000000     0.244500000000    -0.171234   
O163     O      0.382510000000     0.786290000000     0.268010000000    -0.266106   
O164     O      0.413890000000     0.802490000000     0.310850000000    -0.162405   
O165     O      0.405350000000     0.835620000000     0.269050000000    -0.188017   
O166     O      0.379280000000     0.741390000000     0.307080000000    -0.259682   
O167     O      0.413590000000     0.700840000000     0.322140000000    -0.166721   
O168     O      0.396250000000     0.736260000000     0.358980000000    -0.17424    
O169     O      0.047400000000     0.892130000000     0.388470000000    -0.274177   
O170     O      0.052900000000     0.937380000000     0.359400000000    -0.180948   
O171     O      0.018610000000     0.936510000000     0.402800000000    -0.174643   
O172     O      0.391510000000     0.938500000000     0.059230000000    -0.271148   
O173     O      0.403640000000     0.907520000000     0.015970000000    -0.193554   
O174     O      0.423810000000     0.957260000000     0.018340000000    -0.173474   
O175     O      0.493740000000     0.944160000000     0.529370000000    -0.349166   
O176     O      0.495870000000     0.549400000000     0.983190000000    -0.362138   
O177     O      0.493230000000     0.518320000000     0.558760000000    -0.359935   
O178     O      0.495530000000     0.975670000000     0.951580000000    -0.349737   
O179     O      0.493300000000     0.548560000000     0.526370000000    -0.357287   
O180     O      0.492840000000     0.945570000000     0.984020000000    -0.355352   
O181     O      0.496830000000     0.518560000000     0.951410000000    -0.360849   
O182     O      0.496040000000     0.973990000000     0.562090000000    -0.35654    
O183     O      0.049680000000     0.937590000000     0.979090000000    -0.363518   
O184     O      0.048780000000     0.556050000000     0.534710000000    -0.366063   
O185     O      0.051230000000     0.969750000000     0.565370000000    -0.367497   
O186     O      0.059330000000     0.519730000000     0.951260000000    -0.369716   
O187     O      0.058400000000     0.551100000000     0.982530000000    -0.369952   
O188     O      0.050050000000     0.938390000000     0.534090000000    -0.359546   
O189     O      0.050750000000     0.968180000000     0.947020000000    -0.358327   
O190     O      0.049070000000     0.524940000000     0.566280000000    -0.368748   
O191     O      0.540110000000     0.996350000000     0.506650000000    -0.586341   
O192     O      0.314380000000     0.767830000000     0.701490000000    -0.360884   
O193     O      0.311740000000     0.723140000000     0.811020000000    -0.362296   
O194     O      0.314200000000     0.798970000000     0.779600000000    -0.356446   
O195     O      0.314250000000     0.693670000000     0.732280000000    -0.351481   
O196     O      0.311360000000     0.769000000000     0.812180000000    -0.353761   
O197     O      0.311980000000     0.723520000000     0.699580000000    -0.357237   
O198     O      0.313530000000     0.693190000000     0.778400000000    -0.363482   
O199     O      0.316500000000     0.797630000000     0.734260000000    -0.357799   
O200     O      0.256350000000     0.719580000000     0.696950000000    -0.365515   
O201     O      0.257460000000     0.773850000000     0.815010000000    -0.363289   
O202     O      0.259550000000     0.805410000000     0.728350000000    -0.367759   
O203     O      0.253460000000     0.690100000000     0.779470000000    -0.35824    
O204     O      0.250800000000     0.721450000000     0.810650000000    -0.368564   
O205     O      0.258030000000     0.774520000000     0.696600000000    -0.368631   
O206     O      0.258050000000     0.688210000000     0.728190000000    -0.350148   
O207     O      0.257820000000     0.804480000000     0.782940000000    -0.365381   
O208     O      0.269260000000     0.746550000000     0.755490000000    -0.584903   
O209     O      0.257530000000     0.629490000000     0.653130000000    -0.273889   
O210     O      0.252700000000     0.601900000000     0.699990000000    -0.182198   
O211     O      0.287300000000     0.643990000000     0.697420000000    -0.164208   
O212     O      0.153970000000     0.677510000000     0.795430000000    -0.269177   
O213     O      0.175560000000     0.640150000000     0.761700000000    -0.188282   
O214     O      0.193120000000     0.690510000000     0.757710000000    -0.164524   
O215     O      0.048320000000     0.880230000000     0.610450000000    -0.272953   
O216     O      0.052640000000     0.852280000000     0.563790000000    -0.184956   
O217     O      0.019100000000     0.895130000000     0.565980000000    -0.164924   
O218     O      0.415620000000     0.684540000000     0.703770000000    -0.268406   
O219     O      0.400740000000     0.652250000000     0.745260000000    -0.187307   
O220     O      0.382750000000     0.702720000000     0.744500000000    -0.171271   
O221     O      0.382510000000     0.786290000000     0.768020000000    -0.266077   
O222     O      0.413890000000     0.802490000000     0.810850000000    -0.162406   
O223     O      0.405350000000     0.835620000000     0.769050000000    -0.188033   
O224     O      0.379280000000     0.741390000000     0.807080000000    -0.259673   
O225     O      0.413590000000     0.700840000000     0.822140000000    -0.166714   
O226     O      0.396250000000     0.736260000000     0.858980000000    -0.174217   
O227     O      0.047400000000     0.892130000000     0.888470000000    -0.274166   
O228     O      0.052900000000     0.937380000000     0.859400000000    -0.180956   
O229     O      0.018610000000     0.936510000000     0.902800000000    -0.174634   
O230     O      0.391510000000     0.938500000000     0.559230000000    -0.271131   
O231     O      0.403640000000     0.907520000000     0.515970000000    -0.193425   
O232     O      0.423810000000     0.957260000000     0.518340000000    -0.173355   
O233     O      0.993740000000     0.444160000000     0.029370000000    -0.348315   
O234     O      0.995870000000     0.049400000000     0.483190000000    -0.361459   
O235     O      0.993230000000     0.018320000000     0.058760000000    -0.358847   
O236     O      0.995530000000     0.475670000000     0.451580000000    -0.348709   
O237     O      0.993300000000     0.048560000000     0.026370000000    -0.356493   
O238     O      0.992840000000     0.445560000000     0.484020000000    -0.354561   
O239     O      0.996830000000     0.018560000000     0.451400000000    -0.359556   
O240     O      0.996040000000     0.473990000000     0.062090000000    -0.355612   
O241     O      0.549680000000     0.437600000000     0.479090000000    -0.363746   
O242     O      0.548780000000     0.056050000000     0.034710000000    -0.366037   
O243     O      0.551230000000     0.469760000000     0.065370000000    -0.367349   
O244     O      0.559330000000     0.019730000000     0.451260000000    -0.369645   
O245     O      0.558410000000     0.051100000000     0.482520000000    -0.37036    
O246     O      0.550050000000     0.438390000000     0.034090000000    -0.359513   
O247     O      0.550750000000     0.468190000000     0.447020000000    -0.358135   
O248     O      0.549070000000     0.024940000000     0.066280000000    -0.368513   
O249     O      0.040110000000     0.496350000000     0.006650000000    -0.585818   
O250     O      0.814380000000     0.267830000000     0.201500000000    -0.361033   
O251     O      0.811750000000     0.223140000000     0.311020000000    -0.362254   
O252     O      0.814200000000     0.298970000000     0.279600000000    -0.356383   
O253     O      0.814250000000     0.193670000000     0.232280000000    -0.351477   
O254     O      0.811360000000     0.269000000000     0.312180000000    -0.353751   
O255     O      0.811980000000     0.223520000000     0.199580000000    -0.357233   
O256     O      0.813530000000     0.193190000000     0.278400000000    -0.363603   
O257     O      0.816500000000     0.297630000000     0.234260000000    -0.357886   
O258     O      0.756350000000     0.219580000000     0.196950000000    -0.365521   
O259     O      0.757460000000     0.273850000000     0.315010000000    -0.363299   
O260     O      0.759550000000     0.305410000000     0.228350000000    -0.367824   
O261     O      0.753460000000     0.190100000000     0.279470000000    -0.358375   
O262     O      0.750800000000     0.221450000000     0.310650000000    -0.368552   
O263     O      0.758030000000     0.274520000000     0.196600000000    -0.368647   
O264     O      0.758050000000     0.188210000000     0.228190000000    -0.35015    
O265     O      0.757820000000     0.304480000000     0.282940000000    -0.365331   
O266     O      0.769260000000     0.246550000000     0.255490000000    -0.584902   
O267     O      0.757530000000     0.129490000000     0.153130000000    -0.273919   
O268     O      0.752700000000     0.101900000000     0.199990000000    -0.182168   
O269     O      0.787300000000     0.143990000000     0.197410000000    -0.164284   
O270     O      0.653970000000     0.177510000000     0.295430000000    -0.269106   
O271     O      0.675560000000     0.140150000000     0.261700000000    -0.188198   
O272     O      0.693130000000     0.190510000000     0.257710000000    -0.164477   
O273     O      0.548320000000     0.380230000000     0.110450000000    -0.27265    
O274     O      0.552640000000     0.352280000000     0.063790000000    -0.184702   
O275     O      0.519100000000     0.395130000000     0.065980000000    -0.164242   
O276     O      0.915620000000     0.184540000000     0.203770000000    -0.268322   
O277     O      0.900740000000     0.152250000000     0.245250000000    -0.187218   
O278     O      0.882750000000     0.202720000000     0.244500000000    -0.171229   
O279     O      0.882510000000     0.286290000000     0.268010000000    -0.2661     
O280     O      0.913890000000     0.302490000000     0.310850000000    -0.162244   
O281     O      0.905350000000     0.335630000000     0.269050000000    -0.187826   
O282     O      0.879280000000     0.241390000000     0.307080000000    -0.259706   
O283     O      0.913590000000     0.200840000000     0.322140000000    -0.166552   
O284     O      0.896250000000     0.236260000000     0.358980000000    -0.174174   
O285     O      0.547400000000     0.392130000000     0.388470000000    -0.274063   
O286     O      0.552900000000     0.437380000000     0.359400000000    -0.180578   
O287     O      0.518610000000     0.436510000000     0.402800000000    -0.173918   
O288     O      0.891510000000     0.438500000000     0.059230000000    -0.271106   
O289     O      0.903640000000     0.407520000000     0.015970000000    -0.193506   
O290     O      0.923810000000     0.457260000000     0.018340000000    -0.173388   
O291     O      0.993740000000     0.444160000000     0.529370000000    -0.348275   
O292     O      0.995870000000     0.049400000000     0.983190000000    -0.361146   
O293     O      0.993230000000     0.018320000000     0.558760000000    -0.358842   
O294     O      0.995530000000     0.475670000000     0.951580000000    -0.348702   
O295     O      0.993300000000     0.048560000000     0.526370000000    -0.356442   
O296     O      0.992840000000     0.445560000000     0.984020000000    -0.35434    
O297     O      0.996830000000     0.018560000000     0.951410000000    -0.359715   
O298     O      0.996040000000     0.473990000000     0.562090000000    -0.355609   
O299     O      0.549680000000     0.437600000000     0.979090000000    -0.363697   
O300     O      0.548780000000     0.056050000000     0.534710000000    -0.366015   
O301     O      0.551230000000     0.469760000000     0.565370000000    -0.367286   
O302     O      0.559330000000     0.019730000000     0.951260000000    -0.369576   
O303     O      0.558400000000     0.051100000000     0.982530000000    -0.370062   
O304     O      0.550050000000     0.438390000000     0.534080000000    -0.359393   
O305     O      0.550750000000     0.468190000000     0.947020000000    -0.358132   
O306     O      0.549070000000     0.024940000000     0.566280000000    -0.368508   
O307     O      0.040110000000     0.496350000000     0.506650000000    -0.585722   
O308     O      0.814380000000     0.267830000000     0.701490000000    -0.360886   
O309     O      0.811740000000     0.223140000000     0.811020000000    -0.362253   
O310     O      0.814200000000     0.298970000000     0.779600000000    -0.356447   
O311     O      0.814250000000     0.193670000000     0.732280000000    -0.351476   
O312     O      0.811360000000     0.269000000000     0.812180000000    -0.353764   
O313     O      0.811980000000     0.223520000000     0.699580000000    -0.357238   
O314     O      0.813530000000     0.193190000000     0.778400000000    -0.36358    
O315     O      0.816500000000     0.297630000000     0.734260000000    -0.357801   
O316     O      0.756350000000     0.219580000000     0.696950000000    -0.365515   
O317     O      0.757460000000     0.273850000000     0.815010000000    -0.363289   
O318     O      0.759550000000     0.305410000000     0.728350000000    -0.367756   
O319     O      0.753460000000     0.190100000000     0.779470000000    -0.358244   
O320     O      0.750800000000     0.221450000000     0.810650000000    -0.368568   
O321     O      0.758030000000     0.274520000000     0.696600000000    -0.368631   
O322     O      0.758050000000     0.188210000000     0.728190000000    -0.35015    
O323     O      0.757820000000     0.304480000000     0.782940000000    -0.365379   
O324     O      0.769260000000     0.246550000000     0.755490000000    -0.584899   
O325     O      0.757530000000     0.129490000000     0.653140000000    -0.273926   
O326     O      0.752690000000     0.101900000000     0.699990000000    -0.18217    
O327     O      0.787300000000     0.143990000000     0.697420000000    -0.164226   
O328     O      0.653970000000     0.177510000000     0.795430000000    -0.269105   
O329     O      0.675560000000     0.140150000000     0.761700000000    -0.188201   
O330     O      0.693130000000     0.190510000000     0.757710000000    -0.164473   
O331     O      0.548320000000     0.380230000000     0.610450000000    -0.272653   
O332     O      0.552640000000     0.352280000000     0.563790000000    -0.184644   
O333     O      0.519100000000     0.395130000000     0.565980000000    -0.164224   
O334     O      0.915620000000     0.184540000000     0.703770000000    -0.268317   
O335     O      0.900740000000     0.152250000000     0.745260000000    -0.187189   
O336     O      0.882750000000     0.202720000000     0.744500000000    -0.171225   
O337     O      0.882510000000     0.286290000000     0.768020000000    -0.266072   
O338     O      0.913890000000     0.302490000000     0.810850000000    -0.162245   
O339     O      0.905350000000     0.335630000000     0.769050000000    -0.187841   
O340     O      0.879280000000     0.241390000000     0.807080000000    -0.259702   
O341     O      0.913590000000     0.200840000000     0.822140000000    -0.166545   
O342     O      0.896250000000     0.236260000000     0.858980000000    -0.174151   
O343     O      0.547400000000     0.392130000000     0.888470000000    -0.274054   
O344     O      0.552900000000     0.437380000000     0.859400000000    -0.180584   
O345     O      0.518610000000     0.436510000000     0.902800000000    -0.173912   
O346     O      0.891510000000     0.438500000000     0.559230000000    -0.271089   
O347     O      0.903640000000     0.407520000000     0.515970000000    -0.193378   
O348     O      0.923810000000     0.457260000000     0.518340000000    -0.173269   
O349     O      0.993740000000     0.944160000000     0.029370000000    -0.348298   
O350     O      0.995870000000     0.549400000000     0.483190000000    -0.361476   
O351     O      0.993230000000     0.518320000000     0.058760000000    -0.359075   
O352     O      0.995530000000     0.975670000000     0.451580000000    -0.348843   
O353     O      0.993300000000     0.548560000000     0.026370000000    -0.356491   
O354     O      0.992840000000     0.945570000000     0.484020000000    -0.354703   
O355     O      0.996830000000     0.518560000000     0.451400000000    -0.359852   
O356     O      0.996040000000     0.973990000000     0.062090000000    -0.355642   
O357     O      0.549680000000     0.937590000000     0.479090000000    -0.36372    
O358     O      0.548780000000     0.556050000000     0.034710000000    -0.36603    
O359     O      0.551230000000     0.969750000000     0.065370000000    -0.367478   
O360     O      0.559330000000     0.519730000000     0.451260000000    -0.369851   
O361     O      0.558410000000     0.551100000000     0.482520000000    -0.370306   
O362     O      0.550050000000     0.938390000000     0.034090000000    -0.359579   
O363     O      0.550750000000     0.968180000000     0.447020000000    -0.358327   
O364     O      0.549070000000     0.524940000000     0.066280000000    -0.368714   
O365     O      0.040110000000     0.996350000000     0.006650000000    -0.58591    
O366     O      0.814380000000     0.767830000000     0.201500000000    -0.361032   
O367     O      0.811750000000     0.723140000000     0.311020000000    -0.362374   
O368     O      0.814200000000     0.798970000000     0.279600000000    -0.356385   
O369     O      0.814250000000     0.693670000000     0.232280000000    -0.35148    
O370     O      0.811360000000     0.769000000000     0.312180000000    -0.353747   
O371     O      0.811980000000     0.723520000000     0.199580000000    -0.357232   
O372     O      0.813530000000     0.693190000000     0.278400000000    -0.363576   
O373     O      0.816500000000     0.797630000000     0.234260000000    -0.357887   
O374     O      0.756350000000     0.719580000000     0.196950000000    -0.365519   
O375     O      0.757460000000     0.773850000000     0.315010000000    -0.363299   
O376     O      0.759550000000     0.805410000000     0.228350000000    -0.367825   
O377     O      0.753460000000     0.690100000000     0.279470000000    -0.358374   
O378     O      0.750800000000     0.721450000000     0.310650000000    -0.368549   
O379     O      0.758030000000     0.774520000000     0.196600000000    -0.368646   
O380     O      0.758050000000     0.688210000000     0.228190000000    -0.35015    
O381     O      0.757820000000     0.804480000000     0.282940000000    -0.365333   
O382     O      0.769260000000     0.746550000000     0.255490000000    -0.584903   
O383     O      0.757530000000     0.629490000000     0.153130000000    -0.273923   
O384     O      0.752700000000     0.601900000000     0.199990000000    -0.182211   
O385     O      0.787300000000     0.643990000000     0.197410000000    -0.164292   
O386     O      0.653970000000     0.677510000000     0.295430000000    -0.269104   
O387     O      0.675560000000     0.640150000000     0.261700000000    -0.188216   
O388     O      0.693130000000     0.690510000000     0.257710000000    -0.164475   
O389     O      0.548320000000     0.880230000000     0.110450000000    -0.272657   
O390     O      0.552640000000     0.852280000000     0.063790000000    -0.184696   
O391     O      0.519100000000     0.895130000000     0.065980000000    -0.16424    
O392     O      0.915620000000     0.684540000000     0.203770000000    -0.268306   
O393     O      0.900740000000     0.652250000000     0.245250000000    -0.187224   
O394     O      0.882750000000     0.702730000000     0.244500000000    -0.171183   
O395     O      0.882510000000     0.786290000000     0.268010000000    -0.266109   
O396     O      0.913890000000     0.802490000000     0.310850000000    -0.162251   
O397     O      0.905350000000     0.835620000000     0.269050000000    -0.187878   
O398     O      0.879280000000     0.741390000000     0.307080000000    -0.259707   
O399     O      0.913590000000     0.700840000000     0.322140000000    -0.166552   
O400     O      0.896250000000     0.736260000000     0.358980000000    -0.174169   
O401     O      0.547400000000     0.892130000000     0.388470000000    -0.27406    
O402     O      0.552900000000     0.937380000000     0.359400000000    -0.180638   
O403     O      0.518610000000     0.936510000000     0.402800000000    -0.173938   
O404     O      0.891510000000     0.938500000000     0.059230000000    -0.271154   
O405     O      0.903640000000     0.907520000000     0.015970000000    -0.193517   
O406     O      0.923810000000     0.957260000000     0.018340000000    -0.173457   
O407     O      0.993740000000     0.944160000000     0.529370000000    -0.348261   
O408     O      0.995870000000     0.549400000000     0.983190000000    -0.36128    
O409     O      0.993230000000     0.518320000000     0.558760000000    -0.35907    
O410     O      0.995530000000     0.975670000000     0.951580000000    -0.348823   
O411     O      0.993300000000     0.548560000000     0.526370000000    -0.356445   
O412     O      0.992840000000     0.945570000000     0.984020000000    -0.354475   
O413     O      0.996830000000     0.518560000000     0.951410000000    -0.359981   
O414     O      0.996040000000     0.973990000000     0.562090000000    -0.355639   
O415     O      0.549680000000     0.937590000000     0.979090000000    -0.363586   
O416     O      0.548780000000     0.556050000000     0.534710000000    -0.36601    
O417     O      0.551230000000     0.969750000000     0.565370000000    -0.367477   
O418     O      0.559330000000     0.519730000000     0.951260000000    -0.369831   
O419     O      0.558400000000     0.551100000000     0.982530000000    -0.370055   
O420     O      0.550050000000     0.938390000000     0.534090000000    -0.359567   
O421     O      0.550750000000     0.968190000000     0.947020000000    -0.3582     
O422     O      0.549070000000     0.524940000000     0.566280000000    -0.36871    
O423     O      0.040110000000     0.996350000000     0.506650000000    -0.585817   
O424     O      0.814380000000     0.767830000000     0.701490000000    -0.360885   
O425     O      0.811740000000     0.723140000000     0.811020000000    -0.362373   
O426     O      0.814200000000     0.798970000000     0.779600000000    -0.356449   
O427     O      0.814250000000     0.693670000000     0.732280000000    -0.351479   
O428     O      0.811360000000     0.769000000000     0.812180000000    -0.353761   
O429     O      0.811980000000     0.723520000000     0.699580000000    -0.357237   
O430     O      0.813530000000     0.693190000000     0.778400000000    -0.363552   
O431     O      0.816500000000     0.797630000000     0.734260000000    -0.357802   
O432     O      0.756350000000     0.719580000000     0.696950000000    -0.365513   
O433     O      0.757460000000     0.773850000000     0.815010000000    -0.363289   
O434     O      0.759550000000     0.805410000000     0.728350000000    -0.367758   
O435     O      0.753460000000     0.690100000000     0.779470000000    -0.358243   
O436     O      0.750800000000     0.721450000000     0.810650000000    -0.368565   
O437     O      0.758030000000     0.774520000000     0.696600000000    -0.36863    
O438     O      0.758050000000     0.688210000000     0.728190000000    -0.350149   
O439     O      0.757820000000     0.804480000000     0.782940000000    -0.365381   
O440     O      0.769260000000     0.746550000000     0.755490000000    -0.584899   
O441     O      0.757530000000     0.629490000000     0.653140000000    -0.273931   
O442     O      0.752690000000     0.601900000000     0.699990000000    -0.182213   
O443     O      0.787300000000     0.643990000000     0.697420000000    -0.164235   
O444     O      0.653970000000     0.677510000000     0.795430000000    -0.269103   
O445     O      0.675560000000     0.640150000000     0.761700000000    -0.188219   
O446     O      0.693130000000     0.690510000000     0.757710000000    -0.164472   
O447     O      0.548320000000     0.880230000000     0.610450000000    -0.27266    
O448     O      0.552640000000     0.852280000000     0.563790000000    -0.184638   
O449     O      0.519100000000     0.895130000000     0.565980000000    -0.164216   
O450     O      0.915620000000     0.684540000000     0.703770000000    -0.268301   
O451     O      0.900740000000     0.652250000000     0.745260000000    -0.187195   
O452     O      0.882750000000     0.702730000000     0.744500000000    -0.171179   
O453     O      0.882510000000     0.786290000000     0.768020000000    -0.266081   
O454     O      0.913890000000     0.802490000000     0.810850000000    -0.162252   
O455     O      0.905350000000     0.835620000000     0.769050000000    -0.187892   
O456     O      0.879280000000     0.741390000000     0.807080000000    -0.259704   
O457     O      0.913590000000     0.700840000000     0.822140000000    -0.166545   
O458     O      0.896250000000     0.736260000000     0.858980000000    -0.174146   
O459     O      0.547400000000     0.892130000000     0.888470000000    -0.274053   
O460     O      0.552900000000     0.937380000000     0.859400000000    -0.180643   
O461     O      0.518610000000     0.936510000000     0.902800000000    -0.173938   
O462     O      0.891510000000     0.938500000000     0.559230000000    -0.271138   
O463     O      0.903640000000     0.907520000000     0.515970000000    -0.193388   
O464     O      0.923810000000     0.957260000000     0.518340000000    -0.17334    
S1       S      0.256780000000     0.131730000000     0.186860000000     0.287603   
S2       S      0.183060000000     0.167200000000     0.279020000000     0.287573   
S3       S      0.049250000000     0.382260000000     0.076710000000     0.287328   
S4       S      0.389820000000     0.176630000000     0.225620000000     0.287394   
S5       S      0.390910000000     0.312110000000     0.287680000000     0.2899     
S6       S      0.386810000000     0.219770000000     0.331670000000     0.290212   
S7       S      0.048660000000     0.425270000000     0.390060000000     0.287444   
S8       S      0.416250000000     0.430630000000     0.036280000000     0.283753   
S9       S      0.256780000000     0.131730000000     0.686860000000     0.287619   
S10      S      0.183060000000     0.167200000000     0.779020000000     0.287566   
S11      S      0.049250000000     0.382260000000     0.576710000000     0.287336   
S12      S      0.389820000000     0.176630000000     0.725620000000     0.287391   
S13      S      0.390910000000     0.312110000000     0.787680000000     0.28995    
S14      S      0.386810000000     0.219770000000     0.831670000000     0.290187   
S15      S      0.048660000000     0.425270000000     0.890060000000     0.287437   
S16      S      0.416250000000     0.430630000000     0.536280000000     0.283779   
S17      S      0.256780000000     0.631730000000     0.186860000000     0.28761    
S18      S      0.183060000000     0.667200000000     0.279020000000     0.287574   
S19      S      0.049250000000     0.882260000000     0.076710000000     0.287328   
S20      S      0.389820000000     0.676630000000     0.225620000000     0.287319   
S21      S      0.390910000000     0.812110000000     0.287680000000     0.289975   
S22      S      0.386810000000     0.719760000000     0.331670000000     0.290157   
S23      S      0.048660000000     0.925270000000     0.390060000000     0.28743    
S24      S      0.416250000000     0.930630000000     0.036280000000     0.283747   
S25      S      0.256780000000     0.631730000000     0.686860000000     0.287616   
S26      S      0.183060000000     0.667200000000     0.779020000000     0.287566   
S27      S      0.049250000000     0.882260000000     0.576710000000     0.287339   
S28      S      0.389820000000     0.676630000000     0.725620000000     0.287329   
S29      S      0.390910000000     0.812110000000     0.787680000000     0.290024   
S30      S      0.386810000000     0.719760000000     0.831670000000     0.290133   
S31      S      0.048660000000     0.925270000000     0.890060000000     0.28743    
S32      S      0.416250000000     0.930630000000     0.536280000000     0.283776   
S33      S      0.756790000000     0.131730000000     0.186860000000     0.287703   
S34      S      0.683060000000     0.167200000000     0.279020000000     0.287556   
S35      S      0.549250000000     0.382260000000     0.076710000000     0.287398   
S36      S      0.889820000000     0.176630000000     0.225620000000     0.287414   
S37      S      0.890910000000     0.312110000000     0.287680000000     0.289917   
S38      S      0.886810000000     0.219770000000     0.331670000000     0.290224   
S39      S      0.548660000000     0.425270000000     0.390060000000     0.287535   
S40      S      0.916250000000     0.430630000000     0.036280000000     0.283733   
S41      S      0.756780000000     0.131730000000     0.686860000000     0.287721   
S42      S      0.683060000000     0.167200000000     0.779020000000     0.287558   
S43      S      0.549250000000     0.382260000000     0.576710000000     0.287408   
S44      S      0.889820000000     0.176630000000     0.725620000000     0.287388   
S45      S      0.890910000000     0.312110000000     0.787680000000     0.289967   
S46      S      0.886810000000     0.219770000000     0.831670000000     0.290196   
S47      S      0.548660000000     0.425270000000     0.890060000000     0.287537   
S48      S      0.916250000000     0.430630000000     0.536280000000     0.283764   
S49      S      0.756790000000     0.631730000000     0.186860000000     0.2877     
S50      S      0.683060000000     0.667200000000     0.279020000000     0.287557   
S51      S      0.549250000000     0.882260000000     0.076710000000     0.287401   
S52      S      0.889820000000     0.676630000000     0.225620000000     0.287339   
S53      S      0.890910000000     0.812110000000     0.287680000000     0.289992   
S54      S      0.886810000000     0.719770000000     0.331670000000     0.290226   
S55      S      0.548660000000     0.925270000000     0.390060000000     0.287532   
S56      S      0.916250000000     0.930630000000     0.036280000000     0.283727   
S57      S      0.756780000000     0.631730000000     0.686860000000     0.287717   
S58      S      0.683060000000     0.667200000000     0.779020000000     0.287558   
S59      S      0.549250000000     0.882260000000     0.576710000000     0.28741    
S60      S      0.889820000000     0.676630000000     0.725620000000     0.287314   
S61      S      0.890910000000     0.812110000000     0.787680000000     0.290041   
S62      S      0.886810000000     0.719770000000     0.831670000000     0.290199   
S63      S      0.548660000000     0.925270000000     0.890060000000     0.287529   
S64      S      0.916250000000     0.930630000000     0.536280000000     0.283756   


