data_structure

_audit_creation_method RASPA-1.0
_audit_creation_date 2023-5-25
_audit_author_name 'Poobodin Mano'

_cell_length_a    54.0617
_cell_length_b    46.2169
_cell_length_c    46.275
_cell_angle_alpha 90
_cell_angle_beta  90
_cell_angle_gamma 90
_cell_volume      115621

_symmetry_cell_setting          triclinic
_symmetry_space_group_name_Hall 'P 1'
_symmetry_space_group_name_H-M  'P 1'
_symmetry_Int_Tables_number     1

_symmetry_equiv_pos_as_xyz 'x,y,z'

loop_
_atom_site_label
_atom_site_type_symbol
_atom_site_fract_x
_atom_site_fract_y
_atom_site_fract_z
_atom_site_charge
C1       C      0.427130000000     0.493320000000     0.088990000000     0.394827   
C2       C      0.436520000000     0.097950000000     0.489150000000     0.393612   
C3       C      0.435960000000     0.096230000000     0.096210000000     0.393489   
C4       C      0.434200000000     0.489200000000     0.487730000000     0.392714   
C5       C      0.998530000000     0.493080000000     0.491980000000     0.384407   
C6       C      0.001480000000     0.087530000000     0.091660000000     0.382847   
C7       C      0.001210000000     0.494250000000     0.087890000000     0.382171   
C8       C      0.003760000000     0.087030000000     0.496370000000     0.384864   
C9       C      0.251050000000     0.335800000000     0.242280000000     0.395867   
C10      C      0.243810000000     0.236660000000     0.345820000000     0.394479   
C11      C      0.244240000000     0.344840000000     0.345050000000     0.392879   
C12      C      0.243260000000     0.236860000000     0.238210000000     0.39061    
C13      C      0.173320000000     0.245770000000     0.249120000000     0.381158   
C14      C      0.182830000000     0.342750000000     0.342520000000     0.387894   
C15      C      0.176690000000     0.337570000000     0.245550000000     0.381682   
C16      C      0.176370000000     0.244520000000     0.338730000000     0.384731   
C17      C      0.039970000000     0.111340000000     0.153390000000    -0.0321943  
C18      C      0.127630000000     0.225780000000     0.193980000000    -0.029527   
C19      C      0.138930000000     0.210710000000     0.253690000000    -0.00885277 
C20      C      0.138720000000     0.248480000000     0.214210000000    -0.00851085 
C21      C      0.073140000000     0.187900000000     0.191370000000    -0.0548589  
C22      C      0.097040000000     0.146920000000     0.156760000000    -0.0541851  
C23      C      0.098980000000     0.185820000000     0.192070000000     0.061352   
C24      C      0.127690000000     0.189420000000     0.232090000000    -0.0294311  
C25      C      0.071200000000     0.148830000000     0.156250000000     0.06017    
C26      C      0.045580000000     0.144880000000     0.113570000000    -0.0578161  
C27      C      0.059290000000     0.169680000000     0.173520000000    -0.0560904  
C28      C      0.035820000000     0.122890000000     0.091390000000     0.0793701  
C29      C      0.030010000000     0.087780000000     0.133360000000    -0.00593326 
C30      C      0.110900000000     0.165290000000     0.174400000000    -0.0571048  
C31      C      0.057220000000     0.108900000000     0.074630000000    -0.182331   
C32      C      0.048030000000     0.143890000000     0.475800000000    -0.0318684  
C33      C      0.132630000000     0.187020000000     0.359910000000    -0.0293709  
C34      C      0.143600000000     0.246660000000     0.375970000000    -0.00900656 
C35      C      0.143250000000     0.207730000000     0.337390000000    -0.0085217  
C36      C      0.078220000000     0.184980000000     0.399090000000    -0.0546466  
C37      C      0.102160000000     0.146570000000     0.436500000000    -0.054498   
C38      C      0.104100000000     0.184300000000     0.399930000000     0.0612199  
C39      C      0.132890000000     0.224340000000     0.396930000000    -0.0292062  
C40      C      0.076280000000     0.147190000000     0.435590000000     0.0602061  
C41      C      0.047190000000     0.107390000000     0.438000000000    -0.0583058  
C42      C      0.064350000000     0.166650000000     0.416780000000    -0.0561846  
C43      C      0.036070000000     0.084610000000     0.458500000000     0.0800623  
C44      C      0.037740000000     0.122790000000     0.498130000000    -0.00623234 
C45      C      0.116040000000     0.164960000000     0.418870000000    -0.0570886  
C46      C      0.055750000000     0.062820000000     0.468420000000    -0.183073   
C47      C      0.043020000000     0.434640000000     0.110780000000    -0.0320343  
C48      C      0.134110000000     0.396750000000     0.223500000000    -0.0294028  
C49      C      0.142710000000     0.336000000000     0.209830000000    -0.00878491 
C50      C      0.145530000000     0.376810000000     0.246370000000    -0.00921929 
C51      C      0.077530000000     0.398590000000     0.188010000000    -0.0544689  
C52      C      0.100050000000     0.433080000000     0.145910000000    -0.0541272  
C53      C      0.103360000000     0.398430000000     0.185390000000     0.0606614  
C54      C      0.131500000000     0.357710000000     0.188580000000    -0.0294615  
C55      C      0.074220000000     0.433150000000     0.148460000000     0.0596956  
C56      C      0.046630000000     0.474370000000     0.144770000000    -0.0577057  
C57      C      0.063020000000     0.415800000000     0.169790000000    -0.0560021  
C58      C      0.035720000000     0.496170000000     0.123090000000     0.0792503  
C59      C      0.031680000000     0.454300000000     0.087610000000    -0.00658298 
C60      C      0.114560000000     0.415920000000     0.164160000000    -0.0568257  
C61      C      0.056290000000     0.514330000000     0.109100000000    -0.182072   
C62      C      0.388220000000     0.114330000000     0.150270000000    -0.0318474  
C63      C      0.291460000000     0.220990000000     0.183880000000    -0.0288212  
C64      C      0.265550000000     0.190780000000     0.230200000000    -0.00930241 
C65      C      0.265030000000     0.229860000000     0.191700000000    -0.00993939 
C66      C      0.317400000000     0.158090000000     0.156650000000    -0.0545337  
C67      C      0.363060000000     0.177960000000     0.176950000000    -0.0542826  
C68      C      0.318060000000     0.179220000000     0.178330000000     0.0610036  
C69      C      0.291950000000     0.183540000000     0.220690000000    -0.0290937  
C70      C      0.362400000000     0.156710000000     0.155370000000     0.0600276  
C71      C      0.388880000000     0.151750000000     0.113420000000    -0.0586451  
C72      C      0.339320000000     0.146890000000     0.145190000000    -0.0561258  
C73      C      0.415200000000     0.143440000000     0.103770000000     0.0815106  
C74      C      0.414430000000     0.104480000000     0.142670000000    -0.00623737 
C75      C      0.341130000000     0.189190000000     0.188390000000    -0.0570061  
C76      C      0.434410000000     0.164800000000     0.115690000000    -0.184835   
C77      C      0.291110000000     0.400120000000     0.362600000000    -0.0322017  
C78      C      0.386920000000     0.434470000000     0.469740000000    -0.0292377  
C79      C      0.412590000000     0.481990000000     0.441160000000    -0.00862292 
C80      C      0.413140000000     0.442490000000     0.479160000000    -0.00849079 
C81      C      0.361720000000     0.408090000000     0.406490000000    -0.0546413  
C82      C      0.315760000000     0.427640000000     0.426200000000    -0.0542238  
C83      C      0.360720000000     0.429660000000     0.427700000000     0.0612857  
C84      C      0.386400000000     0.472280000000     0.433260000000    -0.0292912  
C85      C      0.316760000000     0.406120000000     0.404930000000     0.0600134  
C86      C      0.290910000000     0.363620000000     0.400420000000    -0.05875    
C87      C      0.339980000000     0.396330000000     0.395160000000    -0.0560552  
C88      C      0.264800000000     0.353310000000     0.392090000000     0.0815625  
C89      C      0.265080000000     0.391820000000     0.352760000000    -0.00572331 
C90      C      0.337510000000     0.439360000000     0.437580000000    -0.0570733  
C91      C      0.245280000000     0.365100000000     0.413120000000    -0.184482   
C92      C      0.291150000000     0.220590000000     0.401040000000    -0.0318336  
C93      C      0.389890000000     0.116930000000     0.434410000000    -0.0292097  
C94      C      0.415210000000     0.144980000000     0.482470000000    -0.00891315 
C95      C      0.416270000000     0.107940000000     0.442220000000    -0.00878018 
C96      C      0.363330000000     0.179830000000     0.409170000000    -0.0546222  
C97      C      0.317870000000     0.158040000000     0.428100000000    -0.0541073  
C98      C      0.362860000000     0.158360000000     0.430520000000     0.0611695  
C99      C      0.388870000000     0.152690000000     0.472930000000    -0.0293581  
C100     C      0.318350000000     0.179470000000     0.406690000000     0.0599338  
C101     C      0.292740000000     0.183540000000     0.363870000000    -0.0586512  
C102     C      0.341320000000     0.190360000000     0.397290000000    -0.0560799  
C103     C      0.266350000000     0.190570000000     0.353450000000     0.0814469  
C104     C      0.264760000000     0.229120000000     0.392750000000    -0.00643326 
C105     C      0.339890000000     0.147500000000     0.439970000000    -0.0570463  
C106     C      0.247730000000     0.168060000000     0.364500000000    -0.184729   
C107     C      0.135680000000     0.362330000000     0.397710000000    -0.0322376  
C108     C      0.048200000000     0.476910000000     0.438190000000    -0.0287341  
C109     C      0.023380000000     0.448830000000     0.486710000000    -0.00938351 
C110     C      0.022610000000     0.487590000000     0.447220000000    -0.0101335  
C111     C      0.068420000000     0.411910000000     0.409730000000    -0.0546519  
C112     C      0.116330000000     0.428050000000     0.425860000000    -0.0546083  
C113     C      0.071790000000     0.433060000000     0.431030000000     0.0613323  
C114     C      0.048880000000     0.440180000000     0.475410000000    -0.0288687  
C115     C      0.112960000000     0.406770000000     0.404670000000     0.0602066  
C116     C      0.136370000000     0.399440000000     0.360710000000    -0.0589336  
C117     C      0.088790000000     0.398830000000     0.396570000000    -0.0562463  
C118     C      0.161750000000     0.389620000000     0.349410000000     0.0818872  
C119     C      0.160850000000     0.350520000000     0.388480000000    -0.00567419 
C120     C      0.095940000000     0.441180000000     0.438980000000    -0.0573044  
C121     C      0.182310000000     0.410190000000     0.359610000000    -0.184702   
C122     C      0.296180000000     0.391960000000     0.220700000000    -0.0318262  
C123     C      0.383390000000     0.434510000000     0.107730000000    -0.0292848  
C124     C      0.395170000000     0.492990000000     0.127040000000    -0.00809167 
C125     C      0.394690000000     0.455950000000     0.086410000000    -0.00827307 
C126     C      0.328130000000     0.432710000000     0.145350000000    -0.0547871  
C127     C      0.350290000000     0.392040000000     0.181870000000    -0.0543074  
C128     C      0.353940000000     0.430870000000     0.146710000000     0.0616446  
C129     C      0.383750000000     0.469880000000     0.146510000000    -0.0294344  
C130     C      0.324480000000     0.393970000000     0.180610000000     0.0605175  
C131     C      0.293510000000     0.356150000000     0.182470000000    -0.058972   
C132     C      0.313430000000     0.414470000000     0.162160000000    -0.0561823  
C133     C      0.281680000000     0.333650000000     0.202680000000     0.082337   
C134     C      0.284970000000     0.371380000000     0.242850000000    -0.00577009 
C135     C      0.364990000000     0.410320000000     0.165090000000    -0.0570505  
C136     C      0.300530000000     0.310470000000     0.211680000000    -0.184893   
C137     C      0.427130000000     0.493320000000     0.588990000000     0.394786   
C138     C      0.436520000000     0.097950000000     0.989150000000     0.392295   
C139     C      0.435960000000     0.096230000000     0.596210000000     0.393453   
C140     C      0.434200000000     0.489200000000     0.987730000000     0.391401   
C141     C      0.998530000000     0.493080000000     0.991980000000     0.383091   
C142     C      0.001480000000     0.087530000000     0.591660000000     0.38281    
C143     C      0.001210000000     0.494250000000     0.587890000000     0.382124   
C144     C      0.003760000000     0.087030000000     0.996370000000     0.383493   
C145     C      0.251050000000     0.335800000000     0.742280000000     0.395862   
C146     C      0.243810000000     0.236660000000     0.845820000000     0.394483   
C147     C      0.244240000000     0.344840000000     0.845050000000     0.392885   
C148     C      0.243260000000     0.236860000000     0.738210000000     0.390612   
C149     C      0.173320000000     0.245770000000     0.749120000000     0.381158   
C150     C      0.182830000000     0.342750000000     0.842510000000     0.38816    
C151     C      0.176690000000     0.337570000000     0.745550000000     0.381683   
C152     C      0.176370000000     0.244520000000     0.838730000000     0.384676   
C153     C      0.039970000000     0.111340000000     0.653390000000    -0.0321912  
C154     C      0.127630000000     0.225780000000     0.693980000000    -0.0295174  
C155     C      0.138930000000     0.210710000000     0.753690000000    -0.00885272 
C156     C      0.138720000000     0.248480000000     0.714210000000    -0.00851462 
C157     C      0.073140000000     0.187900000000     0.691370000000    -0.0548583  
C158     C      0.097040000000     0.146920000000     0.656760000000    -0.0542026  
C159     C      0.098980000000     0.185820000000     0.692070000000     0.0613221  
C160     C      0.127690000000     0.189420000000     0.732090000000    -0.029427   
C161     C      0.071200000000     0.148830000000     0.656250000000     0.0601563  
C162     C      0.045580000000     0.144880000000     0.613570000000    -0.0577913  
C163     C      0.059290000000     0.169680000000     0.673520000000    -0.0561018  
C164     C      0.035820000000     0.122890000000     0.591390000000     0.07932    
C165     C      0.030010000000     0.087780000000     0.633360000000    -0.00593391 
C166     C      0.110900000000     0.165290000000     0.674390000000    -0.0570975  
C167     C      0.057220000000     0.108900000000     0.574630000000    -0.182241   
C168     C      0.048030000000     0.143890000000     0.975800000000    -0.0311275  
C169     C      0.132630000000     0.187020000000     0.859910000000    -0.0293435  
C170     C      0.143600000000     0.246660000000     0.875970000000    -0.00896586 
C171     C      0.143250000000     0.207730000000     0.837390000000    -0.00857529 
C172     C      0.078220000000     0.184980000000     0.899090000000    -0.0546814  
C173     C      0.102160000000     0.146570000000     0.936500000000    -0.0545331  
C174     C      0.104100000000     0.184300000000     0.899930000000     0.0612336  
C175     C      0.132890000000     0.224340000000     0.896930000000    -0.029206   
C176     C      0.076280000000     0.147190000000     0.935590000000     0.0601725  
C177     C      0.047190000000     0.107390000000     0.938000000000    -0.0582249  
C178     C      0.064350000000     0.166650000000     0.916780000000    -0.0561942  
C179     C      0.036070000000     0.084610000000     0.958500000000     0.0798946  
C180     C      0.037740000000     0.122790000000     0.998130000000    -0.00884631 
C181     C      0.116040000000     0.164960000000     0.918860000000    -0.0571477  
C182     C      0.055750000000     0.062820000000     0.968420000000    -0.182961   
C183     C      0.043020000000     0.434640000000     0.610780000000    -0.0320441  
C184     C      0.134110000000     0.396750000000     0.723500000000    -0.0293971  
C185     C      0.142710000000     0.336000000000     0.709830000000    -0.00878968 
C186     C      0.145530000000     0.376810000000     0.746370000000    -0.00922093 
C187     C      0.077530000000     0.398590000000     0.688010000000    -0.0544317  
C188     C      0.100050000000     0.433080000000     0.645910000000    -0.0541556  
C189     C      0.103360000000     0.398430000000     0.685390000000     0.0606357  
C190     C      0.131500000000     0.357710000000     0.688580000000    -0.0294507  
C191     C      0.074220000000     0.433150000000     0.648460000000     0.0596803  
C192     C      0.046630000000     0.474370000000     0.644770000000    -0.0576945  
C193     C      0.063020000000     0.415800000000     0.669790000000    -0.0560271  
C194     C      0.035720000000     0.496170000000     0.623090000000     0.0792228  
C195     C      0.031680000000     0.454300000000     0.587610000000    -0.00656592 
C196     C      0.114560000000     0.415920000000     0.664160000000    -0.0568409  
C197     C      0.056290000000     0.514330000000     0.609100000000    -0.182025   
C198     C      0.388220000000     0.114330000000     0.650270000000    -0.0318369  
C199     C      0.291460000000     0.220990000000     0.683880000000    -0.0288216  
C200     C      0.265550000000     0.190780000000     0.730200000000    -0.00929871 
C201     C      0.265030000000     0.229860000000     0.691700000000    -0.00993378 
C202     C      0.317400000000     0.158090000000     0.656650000000    -0.0545619  
C203     C      0.363060000000     0.177960000000     0.676950000000    -0.054291   
C204     C      0.318060000000     0.179220000000     0.678330000000     0.0609895  
C205     C      0.291950000000     0.183540000000     0.720690000000    -0.0290944  
C206     C      0.362400000000     0.156710000000     0.655370000000     0.060013   
C207     C      0.388880000000     0.151750000000     0.613420000000    -0.0586225  
C208     C      0.339320000000     0.146890000000     0.645190000000    -0.0561472  
C209     C      0.415200000000     0.143440000000     0.603770000000     0.0814822  
C210     C      0.414430000000     0.104480000000     0.642670000000    -0.00624804 
C211     C      0.341130000000     0.189190000000     0.688390000000    -0.057014   
C212     C      0.434410000000     0.164800000000     0.615690000000    -0.184809   
C213     C      0.291110000000     0.400120000000     0.862600000000    -0.0322051  
C214     C      0.386920000000     0.434470000000     0.969740000000    -0.0288332  
C215     C      0.412590000000     0.481990000000     0.941160000000    -0.00870642 
C216     C      0.413140000000     0.442490000000     0.979160000000    -0.00985747 
C217     C      0.361720000000     0.408090000000     0.906490000000    -0.0546559  
C218     C      0.315760000000     0.427640000000     0.926200000000    -0.0542627  
C219     C      0.360720000000     0.429660000000     0.927700000000     0.0612624  
C220     C      0.386400000000     0.472280000000     0.933260000000    -0.0292424  
C221     C      0.316760000000     0.406120000000     0.904930000000     0.0599966  
C222     C      0.290910000000     0.363620000000     0.900420000000    -0.0587337  
C223     C      0.339980000000     0.396330000000     0.895160000000    -0.0560715  
C224     C      0.264800000000     0.353310000000     0.892090000000     0.0815376  
C225     C      0.265080000000     0.391820000000     0.852760000000    -0.00570985 
C226     C      0.337510000000     0.439360000000     0.937580000000    -0.0571021  
C227     C      0.245280000000     0.365100000000     0.913120000000    -0.184443   
C228     C      0.291150000000     0.220590000000     0.901040000000    -0.0318387  
C229     C      0.389890000000     0.116930000000     0.934410000000    -0.0291697  
C230     C      0.415210000000     0.144980000000     0.982470000000    -0.010276   
C231     C      0.416270000000     0.107940000000     0.942220000000    -0.00883919 
C232     C      0.363330000000     0.179830000000     0.909170000000    -0.054613   
C233     C      0.317870000000     0.158040000000     0.928100000000    -0.0541512  
C234     C      0.362860000000     0.158360000000     0.930520000000     0.0611359  
C235     C      0.388870000000     0.152690000000     0.972930000000    -0.0289583  
C236     C      0.318350000000     0.179470000000     0.906690000000     0.0599207  
C237     C      0.292740000000     0.183540000000     0.863870000000    -0.0586457  
C238     C      0.341320000000     0.190360000000     0.897290000000    -0.0561094  
C239     C      0.266350000000     0.190570000000     0.853450000000     0.0814393  
C240     C      0.264760000000     0.229120000000     0.892750000000    -0.00640837 
C241     C      0.339890000000     0.147500000000     0.939970000000    -0.0570717  
C242     C      0.247730000000     0.168060000000     0.864500000000    -0.184711   
C243     C      0.135680000000     0.362330000000     0.897710000000    -0.0322384  
C244     C      0.048200000000     0.476910000000     0.938190000000    -0.0286865  
C245     C      0.023380000000     0.448830000000     0.986710000000    -0.0107363  
C246     C      0.022610000000     0.487590000000     0.947220000000    -0.0102159  
C247     C      0.068420000000     0.411910000000     0.909730000000    -0.0546673  
C248     C      0.116330000000     0.428050000000     0.925860000000    -0.0546462  
C249     C      0.071790000000     0.433060000000     0.931030000000     0.0613089  
C250     C      0.048880000000     0.440180000000     0.975410000000    -0.0284679  
C251     C      0.112960000000     0.406770000000     0.904670000000     0.0601899  
C252     C      0.136370000000     0.399440000000     0.860710000000    -0.0589298  
C253     C      0.088790000000     0.398830000000     0.896570000000    -0.0562625  
C254     C      0.161750000000     0.389620000000     0.849410000000     0.0818822  
C255     C      0.160850000000     0.350520000000     0.888480000000    -0.00566324 
C256     C      0.095940000000     0.441180000000     0.938980000000    -0.0573319  
C257     C      0.182310000000     0.410190000000     0.859610000000    -0.184686   
C258     C      0.296180000000     0.391960000000     0.720700000000    -0.0317402  
C259     C      0.383390000000     0.434510000000     0.607730000000    -0.0293125  
C260     C      0.395170000000     0.492990000000     0.627040000000    -0.00805721 
C261     C      0.394690000000     0.455950000000     0.586410000000    -0.0082548  
C262     C      0.328130000000     0.432710000000     0.645350000000    -0.0548179  
C263     C      0.350290000000     0.392040000000     0.681870000000    -0.0543036  
C264     C      0.353940000000     0.430870000000     0.646710000000     0.0616248  
C265     C      0.383750000000     0.469880000000     0.646510000000    -0.0294522  
C266     C      0.324480000000     0.393970000000     0.680610000000     0.0604726  
C267     C      0.293510000000     0.356150000000     0.682470000000    -0.0589795  
C268     C      0.313430000000     0.414470000000     0.662160000000    -0.0561927  
C269     C      0.281680000000     0.333650000000     0.702680000000     0.0823131  
C270     C      0.284970000000     0.371380000000     0.742860000000    -0.00588815 
C271     C      0.364990000000     0.410320000000     0.665090000000    -0.0570644  
C272     C      0.300530000000     0.310470000000     0.711680000000    -0.184803   
C273     C      0.427130000000     0.993320000000     0.088990000000     0.393441   
C274     C      0.436520000000     0.597950000000     0.489150000000     0.393547   
C275     C      0.435960000000     0.596230000000     0.096210000000     0.393209   
C276     C      0.434200000000     0.989200000000     0.487730000000     0.39141    
C277     C      0.998530000000     0.993080000000     0.491980000000     0.38308    
C278     C      0.001480000000     0.587530000000     0.091660000000     0.382783   
C279     C      0.001210000000     0.994250000000     0.087890000000     0.380951   
C280     C      0.003760000000     0.587030000000     0.496370000000     0.384799   
C281     C      0.251050000000     0.835800000000     0.242280000000     0.395656   
C282     C      0.243810000000     0.736660000000     0.345820000000     0.394453   
C283     C      0.244240000000     0.844840000000     0.345050000000     0.392879   
C284     C      0.243260000000     0.736860000000     0.238210000000     0.390795   
C285     C      0.173320000000     0.745770000000     0.249120000000     0.381136   
C286     C      0.182830000000     0.842750000000     0.342520000000     0.387897   
C287     C      0.176690000000     0.837570000000     0.245550000000     0.381621   
C288     C      0.176370000000     0.744520000000     0.338730000000     0.384707   
C289     C      0.039970000000     0.611340000000     0.153390000000    -0.0321946  
C290     C      0.127630000000     0.725780000000     0.193980000000    -0.0295212  
C291     C      0.138930000000     0.710710000000     0.253690000000    -0.00886858 
C292     C      0.138720000000     0.748480000000     0.214210000000    -0.00851222 
C293     C      0.073140000000     0.687900000000     0.191370000000    -0.05487    
C294     C      0.097040000000     0.646920000000     0.156760000000    -0.0542028  
C295     C      0.098980000000     0.685820000000     0.192070000000     0.0613473  
C296     C      0.127690000000     0.689420000000     0.232090000000    -0.029387   
C297     C      0.071200000000     0.648830000000     0.156250000000     0.0601501  
C298     C      0.045580000000     0.644880000000     0.113570000000    -0.0578061  
C299     C      0.059290000000     0.669680000000     0.173520000000    -0.0560941  
C300     C      0.035820000000     0.622890000000     0.091390000000     0.0793493  
C301     C      0.030010000000     0.587780000000     0.133360000000    -0.00593231 
C302     C      0.110900000000     0.665290000000     0.174400000000    -0.0571269  
C303     C      0.057220000000     0.608900000000     0.074630000000    -0.182293   
C304     C      0.048030000000     0.643890000000     0.475800000000    -0.031896   
C305     C      0.132630000000     0.687020000000     0.359910000000    -0.02936    
C306     C      0.143600000000     0.746660000000     0.375970000000    -0.00900757 
C307     C      0.143250000000     0.707730000000     0.337390000000    -0.00852704 
C308     C      0.078220000000     0.684980000000     0.399090000000    -0.0546611  
C309     C      0.102160000000     0.646570000000     0.436500000000    -0.0545249  
C310     C      0.104100000000     0.684300000000     0.399930000000     0.0612142  
C311     C      0.132890000000     0.724340000000     0.396930000000    -0.0292006  
C312     C      0.076280000000     0.647180000000     0.435590000000     0.0601983  
C313     C      0.047190000000     0.607390000000     0.438000000000    -0.0582704  
C314     C      0.064350000000     0.666650000000     0.416780000000    -0.0561801  
C315     C      0.036070000000     0.584610000000     0.458500000000     0.0799733  
C316     C      0.037740000000     0.622780000000     0.498130000000    -0.00615812 
C317     C      0.116040000000     0.664960000000     0.418870000000    -0.0571064  
C318     C      0.055750000000     0.562820000000     0.468420000000    -0.182855   
C319     C      0.043020000000     0.934640000000     0.110780000000    -0.0319988  
C320     C      0.134110000000     0.896750000000     0.223500000000    -0.0294294  
C321     C      0.142710000000     0.835990000000     0.209830000000    -0.00894971 
C322     C      0.145530000000     0.876810000000     0.246370000000    -0.0091725  
C323     C      0.077530000000     0.898590000000     0.188010000000    -0.0545054  
C324     C      0.100050000000     0.933080000000     0.145910000000    -0.0541331  
C325     C      0.103360000000     0.898430000000     0.185390000000     0.0606552  
C326     C      0.131500000000     0.857710000000     0.188580000000    -0.0293926  
C327     C      0.074220000000     0.933160000000     0.148460000000     0.0596477  
C328     C      0.046630000000     0.974370000000     0.144770000000    -0.057153   
C329     C      0.063020000000     0.915800000000     0.169790000000    -0.0559984  
C330     C      0.035720000000     0.996170000000     0.123090000000     0.0770932  
C331     C      0.031680000000     0.954300000000     0.087610000000    -0.00668507 
C332     C      0.114560000000     0.915920000000     0.164160000000    -0.0568769  
C333     C      0.056290000000     0.014330000000     0.109100000000    -0.180624   
C334     C      0.388220000000     0.614330000000     0.150270000000    -0.0318313  
C335     C      0.291460000000     0.720990000000     0.183880000000    -0.0288253  
C336     C      0.265550000000     0.690780000000     0.230200000000    -0.00929277 
C337     C      0.265030000000     0.729860000000     0.191700000000    -0.00992412 
C338     C      0.317400000000     0.658090000000     0.156650000000    -0.0545585  
C339     C      0.363060000000     0.677960000000     0.176950000000    -0.0542914  
C340     C      0.318060000000     0.679220000000     0.178330000000     0.0609902  
C341     C      0.291950000000     0.683540000000     0.220690000000    -0.0290952  
C342     C      0.362400000000     0.656710000000     0.155370000000     0.0600144  
C343     C      0.388880000000     0.651750000000     0.113420000000    -0.0586345  
C344     C      0.339320000000     0.646890000000     0.145190000000    -0.0561448  
C345     C      0.415200000000     0.643440000000     0.103770000000     0.0814969  
C346     C      0.414430000000     0.604480000000     0.142670000000    -0.00625956 
C347     C      0.341130000000     0.689190000000     0.188390000000    -0.0570134  
C348     C      0.434410000000     0.664800000000     0.115690000000    -0.184826   
C349     C      0.291110000000     0.900120000000     0.362600000000    -0.0321963  
C350     C      0.386920000000     0.934470000000     0.469740000000    -0.0291894  
C351     C      0.412590000000     0.981990000000     0.441160000000    -0.00998272 
C352     C      0.413140000000     0.942490000000     0.479160000000    -0.00857277 
C353     C      0.361720000000     0.908090000000     0.406490000000    -0.0546572  
C354     C      0.315760000000     0.927640000000     0.426200000000    -0.0542635  
C355     C      0.360720000000     0.929660000000     0.427700000000     0.0612614  
C356     C      0.386400000000     0.972280000000     0.433260000000    -0.0288889  
C357     C      0.316760000000     0.906120000000     0.404930000000     0.0599947  
C358     C      0.290910000000     0.863620000000     0.400420000000    -0.0587003  
C359     C      0.339980000000     0.896330000000     0.395160000000    -0.0560717  
C360     C      0.264800000000     0.853300000000     0.392090000000     0.0814826  
C361     C      0.265080000000     0.891820000000     0.352760000000    -0.00571969 
C362     C      0.337510000000     0.939360000000     0.437580000000    -0.0571031  
C363     C      0.245280000000     0.865100000000     0.413120000000    -0.184411   
C364     C      0.291150000000     0.720590000000     0.401040000000    -0.0318319  
C365     C      0.389890000000     0.616930000000     0.434410000000    -0.0292038  
C366     C      0.415210000000     0.644980000000     0.482470000000    -0.00892514 
C367     C      0.416270000000     0.607940000000     0.442220000000    -0.0087769  
C368     C      0.363330000000     0.679840000000     0.409170000000    -0.0546203  
C369     C      0.317870000000     0.658040000000     0.428100000000    -0.0541583  
C370     C      0.362860000000     0.658360000000     0.430520000000     0.061121   
C371     C      0.388870000000     0.652690000000     0.472930000000    -0.0293493  
C372     C      0.318350000000     0.679470000000     0.406690000000     0.0599284  
C373     C      0.292740000000     0.683540000000     0.363870000000    -0.0586374  
C374     C      0.341320000000     0.690360000000     0.397290000000    -0.056088   
C375     C      0.266350000000     0.690570000000     0.353450000000     0.0814251  
C376     C      0.264760000000     0.729120000000     0.392750000000    -0.006431   
C377     C      0.339890000000     0.647500000000     0.439970000000    -0.0570097  
C378     C      0.247730000000     0.668060000000     0.364500000000    -0.184694   
C379     C      0.135680000000     0.862330000000     0.397710000000    -0.0322058  
C380     C      0.048200000000     0.976910000000     0.438190000000    -0.0283308  
C381     C      0.023380000000     0.948830000000     0.486710000000    -0.00947589 
C382     C      0.022610000000     0.987590000000     0.447220000000    -0.0114944  
C383     C      0.068420000000     0.911910000000     0.409730000000    -0.0546675  
C384     C      0.116330000000     0.928050000000     0.425860000000    -0.0546533  
C385     C      0.071790000000     0.933060000000     0.431030000000     0.0613037  
C386     C      0.048880000000     0.940180000000     0.475410000000    -0.0288181  
C387     C      0.112960000000     0.906770000000     0.404670000000     0.0601916  
C388     C      0.136370000000     0.899440000000     0.360710000000    -0.058915   
C389     C      0.088790000000     0.898830000000     0.396570000000    -0.056266   
C390     C      0.161750000000     0.889620000000     0.349410000000     0.0818614  
C391     C      0.160850000000     0.850520000000     0.388480000000    -0.00568271 
C392     C      0.095940000000     0.941180000000     0.438980000000    -0.0573338  
C393     C      0.182310000000     0.910190000000     0.359610000000    -0.184663   
C394     C      0.296180000000     0.891960000000     0.220700000000    -0.0318079  
C395     C      0.383390000000     0.934510000000     0.107730000000    -0.0291936  
C396     C      0.395170000000     0.993000000000     0.127040000000    -0.0108014  
C397     C      0.394690000000     0.955940000000     0.086410000000    -0.00847308 
C398     C      0.328130000000     0.932710000000     0.145350000000    -0.0548218  
C399     C      0.350290000000     0.892040000000     0.181870000000    -0.0543291  
C400     C      0.353940000000     0.930870000000     0.146710000000     0.0616103  
C401     C      0.383750000000     0.969880000000     0.146510000000    -0.0286581  
C402     C      0.324480000000     0.893970000000     0.180610000000     0.0605077  
C403     C      0.293510000000     0.856150000000     0.182470000000    -0.0589235  
C404     C      0.313430000000     0.914470000000     0.162160000000    -0.0562166  
C405     C      0.281680000000     0.833640000000     0.202680000000     0.0822834  
C406     C      0.284970000000     0.871380000000     0.242850000000    -0.00578492 
C407     C      0.364990000000     0.910320000000     0.165090000000    -0.0570631  
C408     C      0.300530000000     0.810470000000     0.211680000000    -0.1848     
C409     C      0.427130000000     0.993320000000     0.588990000000     0.393399   
C410     C      0.436520000000     0.597950000000     0.989150000000     0.392229   
C411     C      0.435960000000     0.596230000000     0.596210000000     0.393173   
C412     C      0.434200000000     0.989200000000     0.987730000000     0.390101   
C413     C      0.998530000000     0.993080000000     0.991980000000     0.38177    
C414     C      0.001480000000     0.587530000000     0.591660000000     0.382746   
C415     C      0.001210000000     0.994250000000     0.587890000000     0.380902   
C416     C      0.003760000000     0.587030000000     0.996370000000     0.383427   
C417     C      0.251050000000     0.835800000000     0.742280000000     0.395651   
C418     C      0.243810000000     0.736660000000     0.845820000000     0.394456   
C419     C      0.244240000000     0.844840000000     0.845050000000     0.392885   
C420     C      0.243260000000     0.736860000000     0.738210000000     0.390797   
C421     C      0.173320000000     0.745770000000     0.749120000000     0.381136   
C422     C      0.182830000000     0.842750000000     0.842510000000     0.388163   
C423     C      0.176690000000     0.837570000000     0.745550000000     0.381621   
C424     C      0.176370000000     0.744520000000     0.838730000000     0.384653   
C425     C      0.039970000000     0.611340000000     0.653390000000    -0.0321915  
C426     C      0.127630000000     0.725780000000     0.693980000000    -0.0295116  
C427     C      0.138930000000     0.710710000000     0.753690000000    -0.00886854 
C428     C      0.138720000000     0.748480000000     0.714210000000    -0.00851599 
C429     C      0.073140000000     0.687900000000     0.691370000000    -0.0548694  
C430     C      0.097040000000     0.646920000000     0.656760000000    -0.0542204  
C431     C      0.098980000000     0.685820000000     0.692070000000     0.0613174  
C432     C      0.127690000000     0.689420000000     0.732090000000    -0.0293829  
C433     C      0.071200000000     0.648830000000     0.656250000000     0.0601364  
C434     C      0.045580000000     0.644880000000     0.613570000000    -0.0577813  
C435     C      0.059290000000     0.669680000000     0.673520000000    -0.0561055  
C436     C      0.035820000000     0.622890000000     0.591390000000     0.0792991  
C437     C      0.030010000000     0.587780000000     0.633360000000    -0.00593295 
C438     C      0.110900000000     0.665290000000     0.674390000000    -0.0571196  
C439     C      0.057220000000     0.608900000000     0.574630000000    -0.182203   
C440     C      0.048030000000     0.643890000000     0.975800000000    -0.0311552  
C441     C      0.132630000000     0.687020000000     0.859910000000    -0.0293326  
C442     C      0.143600000000     0.746660000000     0.875970000000    -0.00896687 
C443     C      0.143250000000     0.707730000000     0.837390000000    -0.00858063 
C444     C      0.078220000000     0.684980000000     0.899090000000    -0.0546959  
C445     C      0.102160000000     0.646570000000     0.936500000000    -0.05456    
C446     C      0.104100000000     0.684300000000     0.899930000000     0.0612279  
C447     C      0.132890000000     0.724340000000     0.896930000000    -0.0292004  
C448     C      0.076280000000     0.647180000000     0.935590000000     0.0601647  
C449     C      0.047190000000     0.607390000000     0.938000000000    -0.0581895  
C450     C      0.064350000000     0.666650000000     0.916780000000    -0.0561897  
C451     C      0.036070000000     0.584610000000     0.958500000000     0.0798055  
C452     C      0.037740000000     0.622780000000     0.998130000000    -0.00877401 
C453     C      0.116040000000     0.664960000000     0.918860000000    -0.0571656  
C454     C      0.055750000000     0.562820000000     0.968420000000    -0.182744   
C455     C      0.043020000000     0.934640000000     0.610780000000    -0.0320085  
C456     C      0.134110000000     0.896750000000     0.723500000000    -0.0294236  
C457     C      0.142710000000     0.835990000000     0.709830000000    -0.00895447 
C458     C      0.145530000000     0.876810000000     0.746370000000    -0.00917414 
C459     C      0.077530000000     0.898590000000     0.688010000000    -0.0544682  
C460     C      0.100050000000     0.933080000000     0.645910000000    -0.0541615  
C461     C      0.103360000000     0.898430000000     0.685390000000     0.0606294  
C462     C      0.131500000000     0.857710000000     0.688580000000    -0.0293818  
C463     C      0.074220000000     0.933160000000     0.648460000000     0.0596324  
C464     C      0.046630000000     0.974370000000     0.644770000000    -0.0571413  
C465     C      0.063020000000     0.915800000000     0.669790000000    -0.0560234  
C466     C      0.035720000000     0.996170000000     0.623090000000     0.0770639  
C467     C      0.031680000000     0.954300000000     0.587610000000    -0.00666814 
C468     C      0.114560000000     0.915920000000     0.664160000000    -0.056892   
C469     C      0.056290000000     0.014330000000     0.609100000000    -0.180575   
C470     C      0.388220000000     0.614330000000     0.650270000000    -0.0318208  
C471     C      0.291460000000     0.720990000000     0.683880000000    -0.0288257  
C472     C      0.265550000000     0.690780000000     0.730200000000    -0.00928906 
C473     C      0.265030000000     0.729860000000     0.691700000000    -0.00991851 
C474     C      0.317400000000     0.658090000000     0.656650000000    -0.0545867  
C475     C      0.363060000000     0.677960000000     0.676950000000    -0.0542998  
C476     C      0.318060000000     0.679220000000     0.678330000000     0.0609761  
C477     C      0.291950000000     0.683540000000     0.720690000000    -0.0290958  
C478     C      0.362400000000     0.656710000000     0.655370000000     0.0599998  
C479     C      0.388880000000     0.651750000000     0.613420000000    -0.0586119  
C480     C      0.339320000000     0.646890000000     0.645190000000    -0.0561661  
C481     C      0.415200000000     0.643440000000     0.603770000000     0.0814685  
C482     C      0.414430000000     0.604480000000     0.642670000000    -0.00627027 
C483     C      0.341130000000     0.689190000000     0.688390000000    -0.0570212  
C484     C      0.434410000000     0.664800000000     0.615690000000    -0.1848     
C485     C      0.291110000000     0.900120000000     0.862600000000    -0.0321996  
C486     C      0.386920000000     0.934470000000     0.969740000000    -0.0287856  
C487     C      0.412590000000     0.981990000000     0.941160000000    -0.0100639  
C488     C      0.413140000000     0.942490000000     0.979160000000    -0.0099371  
C489     C      0.361720000000     0.908090000000     0.906490000000    -0.0546718  
C490     C      0.315760000000     0.927640000000     0.926200000000    -0.0543023  
C491     C      0.360720000000     0.929660000000     0.927700000000     0.0612381  
C492     C      0.386400000000     0.972280000000     0.933260000000    -0.0288409  
C493     C      0.316760000000     0.906120000000     0.904930000000     0.059978   
C494     C      0.290910000000     0.863620000000     0.900420000000    -0.058684   
C495     C      0.339980000000     0.896330000000     0.895160000000    -0.0560879  
C496     C      0.264800000000     0.853300000000     0.892090000000     0.0814577  
C497     C      0.265080000000     0.891820000000     0.852760000000    -0.00570626 
C498     C      0.337510000000     0.939360000000     0.937580000000    -0.0571318  
C499     C      0.245280000000     0.865100000000     0.913120000000    -0.184372   
C500     C      0.291150000000     0.720590000000     0.901040000000    -0.031837   
C501     C      0.389890000000     0.616930000000     0.934410000000    -0.0291638  
C502     C      0.415210000000     0.644980000000     0.982470000000    -0.0102891  
C503     C      0.416270000000     0.607940000000     0.942220000000    -0.00883595 
C504     C      0.363330000000     0.679840000000     0.909170000000    -0.0546111  
C505     C      0.317870000000     0.658040000000     0.928100000000    -0.0542021  
C506     C      0.362860000000     0.658360000000     0.930520000000     0.0610874  
C507     C      0.388870000000     0.652690000000     0.972930000000    -0.0289492  
C508     C      0.318350000000     0.679470000000     0.906690000000     0.0599153  
C509     C      0.292740000000     0.683540000000     0.863870000000    -0.058632   
C510     C      0.341320000000     0.690360000000     0.897290000000    -0.0561175  
C511     C      0.266350000000     0.690570000000     0.853450000000     0.0814175  
C512     C      0.264760000000     0.729120000000     0.892750000000    -0.00640611 
C513     C      0.339890000000     0.647500000000     0.939970000000    -0.0570351  
C514     C      0.247730000000     0.668060000000     0.864500000000    -0.184675   
C515     C      0.135680000000     0.862330000000     0.897710000000    -0.0322066  
C516     C      0.048200000000     0.976910000000     0.938190000000    -0.028284   
C517     C      0.023380000000     0.948830000000     0.986710000000    -0.0108261  
C518     C      0.022610000000     0.987590000000     0.947220000000    -0.0115743  
C519     C      0.068420000000     0.911910000000     0.909730000000    -0.0546828  
C520     C      0.116330000000     0.928050000000     0.925860000000    -0.054691   
C521     C      0.071790000000     0.933060000000     0.931030000000     0.0612805  
C522     C      0.048880000000     0.940180000000     0.975410000000    -0.0284181  
C523     C      0.112960000000     0.906770000000     0.904670000000     0.060175   
C524     C      0.136370000000     0.899440000000     0.860710000000    -0.0589112  
C525     C      0.088790000000     0.898830000000     0.896570000000    -0.056282   
C526     C      0.161750000000     0.889620000000     0.849410000000     0.0818565  
C527     C      0.160850000000     0.850520000000     0.888480000000    -0.00567176 
C528     C      0.095940000000     0.941180000000     0.938980000000    -0.0573612  
C529     C      0.182310000000     0.910190000000     0.859610000000    -0.184647   
C530     C      0.296180000000     0.891960000000     0.720700000000    -0.0317219  
C531     C      0.383390000000     0.934510000000     0.607730000000    -0.0292212  
C532     C      0.395170000000     0.993000000000     0.627040000000    -0.0107688  
C533     C      0.394690000000     0.955940000000     0.586410000000    -0.00845496 
C534     C      0.328130000000     0.932710000000     0.645350000000    -0.0548526  
C535     C      0.350290000000     0.892040000000     0.681870000000    -0.0543254  
C536     C      0.353940000000     0.930870000000     0.646710000000     0.0615906  
C537     C      0.383750000000     0.969880000000     0.646510000000    -0.0286755  
C538     C      0.324480000000     0.893970000000     0.680610000000     0.0604629  
C539     C      0.293510000000     0.856150000000     0.682470000000    -0.0589309  
C540     C      0.313430000000     0.914470000000     0.662160000000    -0.056227   
C541     C      0.281680000000     0.833640000000     0.702680000000     0.0822595  
C542     C      0.284970000000     0.871380000000     0.742860000000    -0.00590296 
C543     C      0.364990000000     0.910320000000     0.665090000000    -0.057077   
C544     C      0.300530000000     0.810470000000     0.711680000000    -0.18471    
C545     C      0.927130000000     0.493320000000     0.088990000000     0.394809   
C546     C      0.936520000000     0.097950000000     0.489150000000     0.393628   
C547     C      0.935960000000     0.096230000000     0.096210000000     0.393501   
C548     C      0.934200000000     0.489200000000     0.487730000000     0.392699   
C549     C      0.498530000000     0.493080000000     0.491980000000     0.383946   
C550     C      0.501480000000     0.087530000000     0.091660000000     0.383875   
C551     C      0.501210000000     0.494250000000     0.087890000000     0.383176   
C552     C      0.503760000000     0.087030000000     0.496370000000     0.385898   
C553     C      0.751050000000     0.335800000000     0.242280000000     0.395954   
C554     C      0.743810000000     0.236660000000     0.345820000000     0.39453    
C555     C      0.744240000000     0.344840000000     0.345050000000     0.392877   
C556     C      0.743260000000     0.236860000000     0.238210000000     0.390607   
C557     C      0.673320000000     0.245770000000     0.249120000000     0.381153   
C558     C      0.682830000000     0.342750000000     0.342520000000     0.387894   
C559     C      0.676690000000     0.337570000000     0.245550000000     0.381677   
C560     C      0.676370000000     0.244520000000     0.338730000000     0.384727   
C561     C      0.539970000000     0.111340000000     0.153390000000    -0.0322152  
C562     C      0.627630000000     0.225780000000     0.193980000000    -0.0295267  
C563     C      0.638930000000     0.210710000000     0.253690000000    -0.00885471 
C564     C      0.638720000000     0.248480000000     0.214210000000    -0.00851277 
C565     C      0.573140000000     0.187900000000     0.191370000000    -0.0548425  
C566     C      0.597040000000     0.146920000000     0.156760000000    -0.0541848  
C567     C      0.598980000000     0.185820000000     0.192070000000     0.0613565  
C568     C      0.627690000000     0.189420000000     0.232090000000    -0.0294306  
C569     C      0.571200000000     0.148830000000     0.156250000000     0.0601776  
C570     C      0.545580000000     0.144880000000     0.113570000000    -0.0578366  
C571     C      0.559290000000     0.169680000000     0.173520000000    -0.0560811  
C572     C      0.535820000000     0.122890000000     0.091390000000     0.079428   
C573     C      0.530010000000     0.087780000000     0.133360000000    -0.00587353 
C574     C      0.610900000000     0.165290000000     0.174400000000    -0.0571028  
C575     C      0.557220000000     0.108900000000     0.074630000000    -0.182349   
C576     C      0.548030000000     0.143890000000     0.475800000000    -0.0318889  
C577     C      0.632630000000     0.187020000000     0.359910000000    -0.0293703  
C578     C      0.643600000000     0.246660000000     0.375970000000    -0.00898266 
C579     C      0.643250000000     0.207730000000     0.337390000000    -0.00852245 
C580     C      0.578220000000     0.184980000000     0.399090000000    -0.0546313  
C581     C      0.602160000000     0.146570000000     0.436500000000    -0.0544984  
C582     C      0.604100000000     0.184300000000     0.399930000000     0.0612227  
C583     C      0.632900000000     0.224340000000     0.396930000000    -0.0292557  
C584     C      0.576280000000     0.147190000000     0.435590000000     0.0602127  
C585     C      0.547190000000     0.107390000000     0.438000000000    -0.0583333  
C586     C      0.564350000000     0.166650000000     0.416780000000    -0.0561765  
C587     C      0.536070000000     0.084610000000     0.458500000000     0.0801383  
C588     C      0.537740000000     0.122790000000     0.498130000000    -0.00617325 
C589     C      0.616040000000     0.164960000000     0.418870000000    -0.0570864  
C590     C      0.555750000000     0.062820000000     0.468420000000    -0.183158   
C591     C      0.543020000000     0.434640000000     0.110780000000    -0.0320529  
C592     C      0.634110000000     0.396750000000     0.223500000000    -0.0294013  
C593     C      0.642710000000     0.336000000000     0.209830000000    -0.00880237 
C594     C      0.645530000000     0.376810000000     0.246370000000    -0.00922275 
C595     C      0.577530000000     0.398590000000     0.188010000000    -0.0544553  
C596     C      0.600050000000     0.433080000000     0.145910000000    -0.054127   
C597     C      0.603360000000     0.398430000000     0.185390000000     0.0606671  
C598     C      0.631500000000     0.357710000000     0.188580000000    -0.029421   
C599     C      0.574220000000     0.433150000000     0.148460000000     0.0597019  
C600     C      0.546630000000     0.474370000000     0.144770000000    -0.0577318  
C601     C      0.563020000000     0.415800000000     0.169790000000    -0.0559933  
C602     C      0.535720000000     0.496170000000     0.123090000000     0.0793261  
C603     C      0.531680000000     0.454300000000     0.087610000000    -0.00652901 
C604     C      0.614560000000     0.415920000000     0.164160000000    -0.0568242  
C605     C      0.556290000000     0.514330000000     0.109100000000    -0.18214    
C606     C      0.888220000000     0.114330000000     0.150270000000    -0.0318458  
C607     C      0.791460000000     0.220990000000     0.183880000000    -0.0288192  
C608     C      0.765550000000     0.190780000000     0.230200000000    -0.00929919 
C609     C      0.765020000000     0.229860000000     0.191700000000    -0.00996143 
C610     C      0.817400000000     0.158090000000     0.156650000000    -0.0545287  
C611     C      0.863060000000     0.177960000000     0.176950000000    -0.0542647  
C612     C      0.818060000000     0.179220000000     0.178330000000     0.0610025  
C613     C      0.791950000000     0.183540000000     0.220690000000    -0.0290999  
C614     C      0.862390000000     0.156710000000     0.155370000000     0.0600141  
C615     C      0.888880000000     0.151750000000     0.113420000000    -0.0586558  
C616     C      0.839320000000     0.146890000000     0.145190000000    -0.0561436  
C617     C      0.915200000000     0.143440000000     0.103770000000     0.0815326  
C618     C      0.914430000000     0.104480000000     0.142670000000    -0.00624421 
C619     C      0.841130000000     0.189190000000     0.188390000000    -0.0570064  
C620     C      0.934410000000     0.164800000000     0.115690000000    -0.184873   
C621     C      0.791110000000     0.400120000000     0.362600000000    -0.0322043  
C622     C      0.886910000000     0.434470000000     0.469740000000    -0.0292665  
C623     C      0.912590000000     0.481990000000     0.441160000000    -0.0086318  
C624     C      0.913150000000     0.442490000000     0.479160000000    -0.0085201  
C625     C      0.861720000000     0.408090000000     0.406490000000    -0.0546567  
C626     C      0.815760000000     0.427640000000     0.426200000000    -0.0542241  
C627     C      0.860720000000     0.429660000000     0.427700000000     0.0613381  
C628     C      0.886400000000     0.472280000000     0.433260000000    -0.0292835  
C629     C      0.816760000000     0.406120000000     0.404930000000     0.0600101  
C630     C      0.790910000000     0.363620000000     0.400420000000    -0.0587503  
C631     C      0.839980000000     0.396330000000     0.395160000000    -0.0560386  
C632     C      0.764800000000     0.353310000000     0.392090000000     0.081537   
C633     C      0.765080000000     0.391820000000     0.352760000000    -0.0057239  
C634     C      0.837520000000     0.439360000000     0.437580000000    -0.0571175  
C635     C      0.745270000000     0.365100000000     0.413120000000    -0.184571   
C636     C      0.791140000000     0.220590000000     0.401040000000    -0.0317977  
C637     C      0.889890000000     0.116930000000     0.434410000000    -0.0291959  
C638     C      0.915210000000     0.144980000000     0.482470000000    -0.00891987 
C639     C      0.916270000000     0.107940000000     0.442220000000    -0.00878771 
C640     C      0.863330000000     0.179830000000     0.409170000000    -0.0546302  
C641     C      0.817870000000     0.158040000000     0.428100000000    -0.0540335  
C642     C      0.862860000000     0.158360000000     0.430520000000     0.0611902  
C643     C      0.888870000000     0.152690000000     0.472930000000    -0.0293519  
C644     C      0.818350000000     0.179470000000     0.406690000000     0.0599024  
C645     C      0.792740000000     0.183540000000     0.363870000000    -0.0586499  
C646     C      0.841320000000     0.190360000000     0.397290000000    -0.0560581  
C647     C      0.766350000000     0.190570000000     0.353450000000     0.0814478  
C648     C      0.764760000000     0.229120000000     0.392750000000    -0.00643289 
C649     C      0.839890000000     0.147500000000     0.439970000000    -0.0570818  
C650     C      0.747730000000     0.168060000000     0.364500000000    -0.184716   
C651     C      0.635680000000     0.362330000000     0.397710000000    -0.0322442  
C652     C      0.548200000000     0.476910000000     0.438190000000    -0.0287205  
C653     C      0.523380000000     0.448830000000     0.486710000000    -0.009404   
C654     C      0.522610000000     0.487590000000     0.447220000000    -0.0101535  
C655     C      0.568420000000     0.411910000000     0.409730000000    -0.0546448  
C656     C      0.616330000000     0.428050000000     0.425860000000    -0.0546041  
C657     C      0.571790000000     0.433060000000     0.431030000000     0.0613463  
C658     C      0.548880000000     0.440180000000     0.475410000000    -0.0288545  
C659     C      0.612960000000     0.406770000000     0.404670000000     0.0602056  
C660     C      0.636370000000     0.399440000000     0.360710000000    -0.0589421  
C661     C      0.588790000000     0.398830000000     0.396570000000    -0.0562337  
C662     C      0.661760000000     0.389620000000     0.349410000000     0.0819912  
C663     C      0.660850000000     0.350520000000     0.388480000000    -0.00566847 
C664     C      0.595940000000     0.441180000000     0.438980000000    -0.0573085  
C665     C      0.682310000000     0.410190000000     0.359610000000    -0.184939   
C666     C      0.796180000000     0.391960000000     0.220700000000    -0.0318268  
C667     C      0.883390000000     0.434510000000     0.107730000000    -0.0293298  
C668     C      0.895170000000     0.492990000000     0.127040000000    -0.00808588 
C669     C      0.894690000000     0.455950000000     0.086410000000    -0.00825418 
C670     C      0.828130000000     0.432710000000     0.145350000000    -0.0547785  
C671     C      0.850290000000     0.392040000000     0.181870000000    -0.0542736  
C672     C      0.853940000000     0.430870000000     0.146710000000     0.0616462  
C673     C      0.883750000000     0.469880000000     0.146510000000    -0.0294401  
C674     C      0.824470000000     0.393970000000     0.180610000000     0.0605297  
C675     C      0.793510000000     0.356150000000     0.182470000000    -0.0589768  
C676     C      0.813430000000     0.414470000000     0.162160000000    -0.0562041  
C677     C      0.781680000000     0.333650000000     0.202680000000     0.0823488  
C678     C      0.784970000000     0.371380000000     0.242850000000    -0.00576984 
C679     C      0.864990000000     0.410320000000     0.165090000000    -0.0570548  
C680     C      0.800530000000     0.310470000000     0.211680000000    -0.184901   
C681     C      0.927130000000     0.493320000000     0.588990000000     0.394769   
C682     C      0.936520000000     0.097950000000     0.989150000000     0.392311   
C683     C      0.935960000000     0.096230000000     0.596210000000     0.393465   
C684     C      0.934200000000     0.489200000000     0.987730000000     0.391385   
C685     C      0.498530000000     0.493080000000     0.991980000000     0.382632   
C686     C      0.501480000000     0.087530000000     0.591660000000     0.383837   
C687     C      0.501210000000     0.494250000000     0.587890000000     0.383128   
C688     C      0.503760000000     0.087030000000     0.996370000000     0.384523   
C689     C      0.751050000000     0.335800000000     0.742280000000     0.395949   
C690     C      0.743810000000     0.236660000000     0.845820000000     0.394533   
C691     C      0.744240000000     0.344840000000     0.845050000000     0.392883   
C692     C      0.743260000000     0.236860000000     0.738210000000     0.390609   
C693     C      0.673320000000     0.245770000000     0.749120000000     0.381153   
C694     C      0.682830000000     0.342750000000     0.842510000000     0.38816    
C695     C      0.676690000000     0.337570000000     0.745550000000     0.381678   
C696     C      0.676370000000     0.244520000000     0.838730000000     0.384672   
C697     C      0.539970000000     0.111340000000     0.653390000000    -0.0322121  
C698     C      0.627630000000     0.225780000000     0.693980000000    -0.0295172  
C699     C      0.638930000000     0.210710000000     0.753690000000    -0.00885465 
C700     C      0.638720000000     0.248480000000     0.714210000000    -0.00851653 
C701     C      0.573140000000     0.187900000000     0.691370000000    -0.054842   
C702     C      0.597040000000     0.146920000000     0.656760000000    -0.0542024  
C703     C      0.598980000000     0.185820000000     0.692070000000     0.0613266  
C704     C      0.627690000000     0.189420000000     0.732090000000    -0.0294265  
C705     C      0.571200000000     0.148830000000     0.656250000000     0.0601639  
C706     C      0.545580000000     0.144880000000     0.613570000000    -0.0578118  
C707     C      0.559290000000     0.169680000000     0.673520000000    -0.0560926  
C708     C      0.535820000000     0.122890000000     0.591390000000     0.0793778  
C709     C      0.530010000000     0.087780000000     0.633360000000    -0.00587422 
C710     C      0.610900000000     0.165290000000     0.674390000000    -0.0570955  
C711     C      0.557220000000     0.108900000000     0.574630000000    -0.182259   
C712     C      0.548030000000     0.143890000000     0.975800000000    -0.0311469  
C713     C      0.632630000000     0.187020000000     0.859910000000    -0.0293429  
C714     C      0.643600000000     0.246660000000     0.875970000000    -0.00894196 
C715     C      0.643250000000     0.207730000000     0.837390000000    -0.00857604 
C716     C      0.578220000000     0.184980000000     0.899090000000    -0.0546662  
C717     C      0.602160000000     0.146570000000     0.936500000000    -0.0545335  
C718     C      0.604100000000     0.184300000000     0.899930000000     0.0612364  
C719     C      0.632900000000     0.224340000000     0.896930000000    -0.0292555  
C720     C      0.576280000000     0.147190000000     0.935590000000     0.0601791  
C721     C      0.547190000000     0.107390000000     0.938000000000    -0.0582523  
C722     C      0.564350000000     0.166650000000     0.916780000000    -0.0561861  
C723     C      0.536070000000     0.084610000000     0.958500000000     0.0799702  
C724     C      0.537740000000     0.122790000000     0.998130000000    -0.00879088 
C725     C      0.616040000000     0.164960000000     0.918860000000    -0.0571456  
C726     C      0.555750000000     0.062820000000     0.968420000000    -0.183046   
C727     C      0.543020000000     0.434640000000     0.610780000000    -0.0320627  
C728     C      0.634110000000     0.396750000000     0.723500000000    -0.0293956  
C729     C      0.642710000000     0.336000000000     0.709830000000    -0.00880712 
C730     C      0.645530000000     0.376810000000     0.746370000000    -0.00922439 
C731     C      0.577530000000     0.398590000000     0.688010000000    -0.0544181  
C732     C      0.600050000000     0.433080000000     0.645910000000    -0.0541554  
C733     C      0.603360000000     0.398430000000     0.685390000000     0.0606413  
C734     C      0.631500000000     0.357710000000     0.688580000000    -0.0294103  
C735     C      0.574220000000     0.433150000000     0.648460000000     0.0596866  
C736     C      0.546630000000     0.474370000000     0.644770000000    -0.0577206  
C737     C      0.563020000000     0.415800000000     0.669790000000    -0.0560183  
C738     C      0.535720000000     0.496170000000     0.623090000000     0.0792985  
C739     C      0.531680000000     0.454300000000     0.587610000000    -0.00651196 
C740     C      0.614560000000     0.415920000000     0.664160000000    -0.0568394  
C741     C      0.556290000000     0.514330000000     0.609100000000    -0.182092   
C742     C      0.888220000000     0.114330000000     0.650270000000    -0.0318353  
C743     C      0.791460000000     0.220990000000     0.683880000000    -0.0288196  
C744     C      0.765550000000     0.190780000000     0.730200000000    -0.00929549 
C745     C      0.765020000000     0.229860000000     0.691700000000    -0.00995581 
C746     C      0.817400000000     0.158090000000     0.656650000000    -0.0545569  
C747     C      0.863060000000     0.177960000000     0.676950000000    -0.0542731  
C748     C      0.818060000000     0.179220000000     0.678330000000     0.0609884  
C749     C      0.791950000000     0.183540000000     0.720690000000    -0.0291006  
C750     C      0.862390000000     0.156710000000     0.655370000000     0.0599995  
C751     C      0.888880000000     0.151750000000     0.613420000000    -0.0586332  
C752     C      0.839320000000     0.146890000000     0.645190000000    -0.0561649  
C753     C      0.915200000000     0.143440000000     0.603770000000     0.0815042  
C754     C      0.914430000000     0.104480000000     0.642670000000    -0.00625488 
C755     C      0.841130000000     0.189190000000     0.688390000000    -0.0570142  
C756     C      0.934410000000     0.164800000000     0.615690000000    -0.184847   
C757     C      0.791110000000     0.400120000000     0.862600000000    -0.0322076  
C758     C      0.886910000000     0.434470000000     0.969740000000    -0.0288627  
C759     C      0.912590000000     0.481990000000     0.941160000000    -0.00871533 
C760     C      0.913150000000     0.442490000000     0.979160000000    -0.00988711 
C761     C      0.861720000000     0.408090000000     0.906490000000    -0.0546713  
C762     C      0.815760000000     0.427640000000     0.926200000000    -0.054263   
C763     C      0.860720000000     0.429660000000     0.927700000000     0.0613147  
C764     C      0.886400000000     0.472280000000     0.933260000000    -0.0292348  
C765     C      0.816760000000     0.406120000000     0.904930000000     0.0599933  
C766     C      0.790910000000     0.363620000000     0.900420000000    -0.058734   
C767     C      0.839980000000     0.396330000000     0.895160000000    -0.0560548  
C768     C      0.764800000000     0.353310000000     0.892090000000     0.0815121  
C769     C      0.765080000000     0.391820000000     0.852760000000    -0.00571044 
C770     C      0.837520000000     0.439360000000     0.937580000000    -0.0571462  
C771     C      0.745270000000     0.365100000000     0.913120000000    -0.184532   
C772     C      0.791140000000     0.220590000000     0.901040000000    -0.0318028  
C773     C      0.889890000000     0.116930000000     0.934410000000    -0.0291559  
C774     C      0.915210000000     0.144980000000     0.982470000000    -0.0102831  
C775     C      0.916270000000     0.107940000000     0.942220000000    -0.00884674 
C776     C      0.863330000000     0.179830000000     0.909170000000    -0.0546209  
C777     C      0.817870000000     0.158040000000     0.928100000000    -0.0540775  
C778     C      0.862860000000     0.158360000000     0.930520000000     0.0611566  
C779     C      0.888870000000     0.152690000000     0.972930000000    -0.028952   
C780     C      0.818350000000     0.179470000000     0.906690000000     0.0598893  
C781     C      0.792740000000     0.183540000000     0.863870000000    -0.0586444  
C782     C      0.841320000000     0.190360000000     0.897290000000    -0.0560877  
C783     C      0.766350000000     0.190570000000     0.853450000000     0.0814402  
C784     C      0.764760000000     0.229120000000     0.892750000000    -0.00640798 
C785     C      0.839890000000     0.147500000000     0.939970000000    -0.0571072  
C786     C      0.747730000000     0.168060000000     0.864500000000    -0.184697   
C787     C      0.635680000000     0.362330000000     0.897710000000    -0.032245   
C788     C      0.548200000000     0.476910000000     0.938190000000    -0.0286728  
C789     C      0.523380000000     0.448830000000     0.986710000000    -0.0107585  
C790     C      0.522610000000     0.487590000000     0.947220000000    -0.010236   
C791     C      0.568420000000     0.411910000000     0.909730000000    -0.0546602  
C792     C      0.616330000000     0.428050000000     0.925860000000    -0.054642   
C793     C      0.571790000000     0.433060000000     0.931030000000     0.0613228  
C794     C      0.548880000000     0.440180000000     0.975410000000    -0.0284532  
C795     C      0.612960000000     0.406770000000     0.904670000000     0.060189   
C796     C      0.636370000000     0.399440000000     0.860710000000    -0.0589382  
C797     C      0.588790000000     0.398830000000     0.896570000000    -0.0562499  
C798     C      0.661760000000     0.389620000000     0.849410000000     0.0819862  
C799     C      0.660850000000     0.350520000000     0.888480000000    -0.00565753 
C800     C      0.595940000000     0.441180000000     0.938980000000    -0.057336   
C801     C      0.682310000000     0.410190000000     0.859610000000    -0.184923   
C802     C      0.796180000000     0.391960000000     0.720700000000    -0.0317408  
C803     C      0.883390000000     0.434510000000     0.607730000000    -0.0293575  
C804     C      0.895170000000     0.492990000000     0.627040000000    -0.00805142 
C805     C      0.894690000000     0.455950000000     0.586410000000    -0.00823591 
C806     C      0.828130000000     0.432710000000     0.645350000000    -0.0548093  
C807     C      0.850290000000     0.392040000000     0.681870000000    -0.0542699  
C808     C      0.853940000000     0.430870000000     0.646710000000     0.0616264  
C809     C      0.883750000000     0.469880000000     0.646510000000    -0.029458   
C810     C      0.824470000000     0.393970000000     0.680610000000     0.0604849  
C811     C      0.793510000000     0.356150000000     0.682470000000    -0.0589842  
C812     C      0.813430000000     0.414470000000     0.662160000000    -0.0562145  
C813     C      0.781680000000     0.333650000000     0.702680000000     0.0823249  
C814     C      0.784970000000     0.371380000000     0.742860000000    -0.0058879  
C815     C      0.864990000000     0.410320000000     0.665090000000    -0.0570687  
C816     C      0.800530000000     0.310470000000     0.711680000000    -0.18481    
C817     C      0.927130000000     0.993320000000     0.088990000000     0.393424   
C818     C      0.936520000000     0.597950000000     0.489150000000     0.393563   
C819     C      0.935960000000     0.596230000000     0.096210000000     0.393221   
C820     C      0.934200000000     0.989200000000     0.487730000000     0.391394   
C821     C      0.498530000000     0.993080000000     0.491980000000     0.382621   
C822     C      0.501480000000     0.587530000000     0.091660000000     0.38381    
C823     C      0.501210000000     0.994250000000     0.087890000000     0.381951   
C824     C      0.503760000000     0.587030000000     0.496370000000     0.385833   
C825     C      0.751050000000     0.835800000000     0.242280000000     0.395742   
C826     C      0.743810000000     0.736660000000     0.345820000000     0.394504   
C827     C      0.744240000000     0.844840000000     0.345050000000     0.392877   
C828     C      0.743260000000     0.736860000000     0.238210000000     0.390792   
C829     C      0.673320000000     0.745770000000     0.249120000000     0.381131   
C830     C      0.682830000000     0.842750000000     0.342520000000     0.387898   
C831     C      0.676690000000     0.837570000000     0.245550000000     0.381615   
C832     C      0.676370000000     0.744520000000     0.338730000000     0.384704   
C833     C      0.539970000000     0.611340000000     0.153390000000    -0.0322154  
C834     C      0.627630000000     0.725780000000     0.193980000000    -0.0295209  
C835     C      0.638930000000     0.710710000000     0.253690000000    -0.00887052 
C836     C      0.638720000000     0.748480000000     0.214210000000    -0.00851413 
C837     C      0.573140000000     0.687900000000     0.191370000000    -0.0548537  
C838     C      0.597040000000     0.646920000000     0.156760000000    -0.0542025  
C839     C      0.598980000000     0.685820000000     0.192070000000     0.0613517  
C840     C      0.627690000000     0.689420000000     0.232090000000    -0.0293866  
C841     C      0.571200000000     0.648830000000     0.156250000000     0.0601577  
C842     C      0.545580000000     0.644880000000     0.113570000000    -0.0578267  
C843     C      0.559290000000     0.669680000000     0.173520000000    -0.0560848  
C844     C      0.535820000000     0.622890000000     0.091390000000     0.0794072  
C845     C      0.530010000000     0.587780000000     0.133360000000    -0.0058726  
C846     C      0.610900000000     0.665290000000     0.174400000000    -0.0571249  
C847     C      0.557220000000     0.608900000000     0.074630000000    -0.182312   
C848     C      0.548030000000     0.643890000000     0.475800000000    -0.0319165  
C849     C      0.632630000000     0.687020000000     0.359910000000    -0.0293594  
C850     C      0.643600000000     0.746660000000     0.375970000000    -0.00898367 
C851     C      0.643250000000     0.707730000000     0.337390000000    -0.00852779 
C852     C      0.578220000000     0.684980000000     0.399090000000    -0.0546459  
C853     C      0.602160000000     0.646570000000     0.436500000000    -0.0545253  
C854     C      0.604100000000     0.684300000000     0.399930000000     0.061217   
C855     C      0.632900000000     0.724340000000     0.396930000000    -0.0292501  
C856     C      0.576280000000     0.647180000000     0.435590000000     0.0602049  
C857     C      0.547190000000     0.607390000000     0.438000000000    -0.0582979  
C858     C      0.564350000000     0.666650000000     0.416780000000    -0.056172   
C859     C      0.536070000000     0.584610000000     0.458500000000     0.0800492  
C860     C      0.537740000000     0.622780000000     0.498130000000    -0.00609901 
C861     C      0.616040000000     0.664960000000     0.418870000000    -0.0571042  
C862     C      0.555750000000     0.562820000000     0.468420000000    -0.18294    
C863     C      0.543020000000     0.934640000000     0.110780000000    -0.0320173  
C864     C      0.634110000000     0.896750000000     0.223500000000    -0.0294278  
C865     C      0.642710000000     0.835990000000     0.209830000000    -0.00896715 
C866     C      0.645530000000     0.876810000000     0.246370000000    -0.00917596 
C867     C      0.577530000000     0.898590000000     0.188010000000    -0.0544919  
C868     C      0.600050000000     0.933080000000     0.145910000000    -0.0541329  
C869     C      0.603360000000     0.898430000000     0.185390000000     0.0606609  
C870     C      0.631500000000     0.857710000000     0.188580000000    -0.0293521  
C871     C      0.574220000000     0.933160000000     0.148460000000     0.0596539  
C872     C      0.546630000000     0.974370000000     0.144770000000    -0.0571782  
C873     C      0.563020000000     0.915800000000     0.169790000000    -0.0559896  
C874     C      0.535720000000     0.996170000000     0.123090000000     0.0771659  
C875     C      0.531680000000     0.954300000000     0.087610000000    -0.00663139 
C876     C      0.614560000000     0.915920000000     0.164160000000    -0.0568753  
C877     C      0.556290000000     0.014330000000     0.109100000000    -0.180689   
C878     C      0.888220000000     0.614330000000     0.150270000000    -0.0318297  
C879     C      0.791460000000     0.720990000000     0.183880000000    -0.0288232  
C880     C      0.765550000000     0.690780000000     0.230200000000    -0.00928954 
C881     C      0.765020000000     0.729860000000     0.191700000000    -0.00994615 
C882     C      0.817400000000     0.658090000000     0.156650000000    -0.0545534  
C883     C      0.863060000000     0.677960000000     0.176950000000    -0.0542734  
C884     C      0.818060000000     0.679220000000     0.178330000000     0.0609891  
C885     C      0.791950000000     0.683540000000     0.220690000000    -0.0291014  
C886     C      0.862390000000     0.656710000000     0.155370000000     0.060001   
C887     C      0.888880000000     0.651750000000     0.113420000000    -0.0586453  
C888     C      0.839320000000     0.646890000000     0.145190000000    -0.0561625  
C889     C      0.915200000000     0.643440000000     0.103770000000     0.0815189  
C890     C      0.914430000000     0.604480000000     0.142670000000    -0.00626642 
C891     C      0.841130000000     0.689190000000     0.188390000000    -0.0570136  
C892     C      0.934410000000     0.664800000000     0.115690000000    -0.184865   
C893     C      0.791110000000     0.900120000000     0.362600000000    -0.0321989  
C894     C      0.886910000000     0.934470000000     0.469740000000    -0.0292182  
C895     C      0.912590000000     0.981990000000     0.441160000000    -0.00999195 
C896     C      0.913150000000     0.942490000000     0.479160000000    -0.00860206 
C897     C      0.861720000000     0.908090000000     0.406490000000    -0.0546727  
C898     C      0.815760000000     0.927640000000     0.426200000000    -0.0542639  
C899     C      0.860720000000     0.929660000000     0.427700000000     0.0613137  
C900     C      0.886400000000     0.972280000000     0.433260000000    -0.0288812  
C901     C      0.816760000000     0.906120000000     0.404930000000     0.0599914  
C902     C      0.790910000000     0.863620000000     0.400420000000    -0.0587006  
C903     C      0.839980000000     0.896330000000     0.395160000000    -0.0560551  
C904     C      0.764800000000     0.853300000000     0.392090000000     0.0814571  
C905     C      0.765080000000     0.891820000000     0.352760000000    -0.00572027 
C906     C      0.837520000000     0.939360000000     0.437580000000    -0.0571473  
C907     C      0.745270000000     0.865100000000     0.413120000000    -0.1845     
C908     C      0.791140000000     0.720590000000     0.401040000000    -0.031796   
C909     C      0.889890000000     0.616930000000     0.434410000000    -0.0291901  
C910     C      0.915210000000     0.644980000000     0.482470000000    -0.00893186 
C911     C      0.916270000000     0.607940000000     0.442220000000    -0.00878442 
C912     C      0.863330000000     0.679840000000     0.409170000000    -0.0546282  
C913     C      0.817870000000     0.658040000000     0.428100000000    -0.0540846  
C914     C      0.862860000000     0.658360000000     0.430520000000     0.0611417  
C915     C      0.888870000000     0.652690000000     0.472930000000    -0.0293432  
C916     C      0.818350000000     0.679470000000     0.406690000000     0.059897   
C917     C      0.792740000000     0.683540000000     0.363870000000    -0.0586361  
C918     C      0.841320000000     0.690360000000     0.397290000000    -0.0560662  
C919     C      0.766350000000     0.690570000000     0.353450000000     0.081426   
C920     C      0.764760000000     0.729120000000     0.392750000000    -0.00643063 
C921     C      0.839890000000     0.647500000000     0.439970000000    -0.0570452  
C922     C      0.747730000000     0.668060000000     0.364500000000    -0.18468    
C923     C      0.635680000000     0.862330000000     0.397710000000    -0.0322124  
C924     C      0.548200000000     0.976910000000     0.438190000000    -0.0283167  
C925     C      0.523380000000     0.948830000000     0.486710000000    -0.00949637 
C926     C      0.522610000000     0.987590000000     0.447220000000    -0.0115162  
C927     C      0.568420000000     0.911910000000     0.409730000000    -0.0546603  
C928     C      0.616330000000     0.928050000000     0.425860000000    -0.0546491  
C929     C      0.571790000000     0.933060000000     0.431030000000     0.0613176  
C930     C      0.548880000000     0.940180000000     0.475410000000    -0.0288039  
C931     C      0.612960000000     0.906770000000     0.404670000000     0.0601906  
C932     C      0.636370000000     0.899440000000     0.360710000000    -0.0589234  
C933     C      0.588790000000     0.898830000000     0.396570000000    -0.0562534  
C934     C      0.661760000000     0.889620000000     0.349410000000     0.0819653  
C935     C      0.660850000000     0.850520000000     0.388480000000    -0.00567699 
C936     C      0.595940000000     0.941180000000     0.438980000000    -0.0573379  
C937     C      0.682310000000     0.910190000000     0.359610000000    -0.184899   
C938     C      0.796180000000     0.891960000000     0.220700000000    -0.0318085  
C939     C      0.883390000000     0.934510000000     0.107730000000    -0.0292385  
C940     C      0.895170000000     0.993000000000     0.127040000000    -0.0107963  
C941     C      0.894690000000     0.955940000000     0.086410000000    -0.00845423 
C942     C      0.828130000000     0.932710000000     0.145350000000    -0.0548132  
C943     C      0.850290000000     0.892040000000     0.181870000000    -0.0542954  
C944     C      0.853940000000     0.930870000000     0.146710000000     0.0616119  
C945     C      0.883750000000     0.969880000000     0.146510000000    -0.0286636  
C946     C      0.824470000000     0.893970000000     0.180610000000     0.06052    
C947     C      0.793510000000     0.856150000000     0.182470000000    -0.0589282  
C948     C      0.813430000000     0.914470000000     0.162160000000    -0.0562385  
C949     C      0.781680000000     0.833640000000     0.202680000000     0.0822952  
C950     C      0.784970000000     0.871380000000     0.242850000000    -0.00578467 
C951     C      0.864990000000     0.910320000000     0.165090000000    -0.0570674  
C952     C      0.800530000000     0.810470000000     0.211680000000    -0.184807   
C953     C      0.927130000000     0.993320000000     0.588990000000     0.393382   
C954     C      0.936520000000     0.597950000000     0.989150000000     0.392244   
C955     C      0.935960000000     0.596230000000     0.596210000000     0.393185   
C956     C      0.934200000000     0.989200000000     0.987730000000     0.390085   
C957     C      0.498530000000     0.993080000000     0.991980000000     0.381313   
C958     C      0.501480000000     0.587530000000     0.591660000000     0.383773   
C959     C      0.501210000000     0.994250000000     0.587890000000     0.381902   
C960     C      0.503760000000     0.587030000000     0.996370000000     0.384456   
C961     C      0.751050000000     0.835800000000     0.742280000000     0.395738   
C962     C      0.743810000000     0.736660000000     0.845820000000     0.394507   
C963     C      0.744240000000     0.844840000000     0.845050000000     0.392883   
C964     C      0.743260000000     0.736860000000     0.738210000000     0.390794   
C965     C      0.673320000000     0.745770000000     0.749120000000     0.381131   
C966     C      0.682830000000     0.842750000000     0.842510000000     0.388163   
C967     C      0.676690000000     0.837570000000     0.745550000000     0.381616   
C968     C      0.676370000000     0.744520000000     0.838730000000     0.384649   
C969     C      0.539970000000     0.611340000000     0.653390000000    -0.0322123  
C970     C      0.627630000000     0.725780000000     0.693980000000    -0.0295114  
C971     C      0.638930000000     0.710710000000     0.753690000000    -0.00887047 
C972     C      0.638720000000     0.748480000000     0.714210000000    -0.0085179  
C973     C      0.573140000000     0.687900000000     0.691370000000    -0.0548532  
C974     C      0.597040000000     0.646920000000     0.656760000000    -0.0542201  
C975     C      0.598980000000     0.685820000000     0.692070000000     0.0613218  
C976     C      0.627690000000     0.689420000000     0.732090000000    -0.0293824  
C977     C      0.571200000000     0.648830000000     0.656250000000     0.060144   
C978     C      0.545580000000     0.644880000000     0.613570000000    -0.0578018  
C979     C      0.559290000000     0.669680000000     0.673520000000    -0.0560963  
C980     C      0.535820000000     0.622890000000     0.591390000000     0.0793569  
C981     C      0.530010000000     0.587780000000     0.633360000000    -0.00587328 
C982     C      0.610900000000     0.665290000000     0.674390000000    -0.0571176  
C983     C      0.557220000000     0.608900000000     0.574630000000    -0.182222   
C984     C      0.548030000000     0.643890000000     0.975800000000    -0.0311747  
C985     C      0.632630000000     0.687020000000     0.859910000000    -0.029332   
C986     C      0.643600000000     0.746660000000     0.875970000000    -0.00894297 
C987     C      0.643250000000     0.707730000000     0.837390000000    -0.00858137 
C988     C      0.578220000000     0.684980000000     0.899090000000    -0.0546807  
C989     C      0.602160000000     0.646570000000     0.936500000000    -0.0545604  
C990     C      0.604100000000     0.684300000000     0.899930000000     0.0612307  
C991     C      0.632900000000     0.724340000000     0.896930000000    -0.0292499  
C992     C      0.576280000000     0.647180000000     0.935590000000     0.0601713  
C993     C      0.547190000000     0.607390000000     0.938000000000    -0.0582168  
C994     C      0.564350000000     0.666650000000     0.916780000000    -0.0561817  
C995     C      0.536070000000     0.584610000000     0.958500000000     0.079881   
C996     C      0.537740000000     0.622780000000     0.998130000000    -0.00871857 
C997     C      0.616040000000     0.664960000000     0.918860000000    -0.0571634  
C998     C      0.555750000000     0.562820000000     0.968420000000    -0.182829   
C999     C      0.543020000000     0.934640000000     0.610780000000    -0.032027   
C1000    C      0.634110000000     0.896750000000     0.723500000000    -0.0294221  
C1001    C      0.642710000000     0.835990000000     0.709830000000    -0.0089719  
C1002    C      0.645530000000     0.876810000000     0.746370000000    -0.0091776  
C1003    C      0.577530000000     0.898590000000     0.688010000000    -0.0544547  
C1004    C      0.600050000000     0.933080000000     0.645910000000    -0.0541613  
C1005    C      0.603360000000     0.898430000000     0.685390000000     0.0606351  
C1006    C      0.631500000000     0.857710000000     0.688580000000    -0.0293413  
C1007    C      0.574220000000     0.933160000000     0.648460000000     0.0596386  
C1008    C      0.546630000000     0.974370000000     0.644770000000    -0.0571665  
C1009    C      0.563020000000     0.915800000000     0.669790000000    -0.0560146  
C1010    C      0.535720000000     0.996170000000     0.623090000000     0.0771364  
C1011    C      0.531680000000     0.954300000000     0.587610000000    -0.00661447 
C1012    C      0.614560000000     0.915920000000     0.664160000000    -0.0568905  
C1013    C      0.556290000000     0.014330000000     0.609100000000    -0.18064    
C1014    C      0.888220000000     0.614330000000     0.650270000000    -0.0318192  
C1015    C      0.791460000000     0.720990000000     0.683880000000    -0.0288236  
C1016    C      0.765550000000     0.690780000000     0.730200000000    -0.00928584 
C1017    C      0.765020000000     0.729860000000     0.691700000000    -0.00994052 
C1018    C      0.817400000000     0.658090000000     0.656650000000    -0.0545817  
C1019    C      0.863060000000     0.677960000000     0.676950000000    -0.0542819  
C1020    C      0.818060000000     0.679220000000     0.678330000000     0.060975   
C1021    C      0.791950000000     0.683540000000     0.720690000000    -0.029102   
C1022    C      0.862390000000     0.656710000000     0.655370000000     0.0599864  
C1023    C      0.888880000000     0.651750000000     0.613420000000    -0.0586227  
C1024    C      0.839320000000     0.646890000000     0.645190000000    -0.0561839  
C1025    C      0.915200000000     0.643440000000     0.603770000000     0.0814905  
C1026    C      0.914430000000     0.604480000000     0.642670000000    -0.00627712 
C1027    C      0.841130000000     0.689190000000     0.688390000000    -0.0570215  
C1028    C      0.934410000000     0.664800000000     0.615690000000    -0.184839   
C1029    C      0.791110000000     0.900120000000     0.862600000000    -0.0322022  
C1030    C      0.886910000000     0.934470000000     0.969740000000    -0.0288151  
C1031    C      0.912590000000     0.981990000000     0.941160000000    -0.0100731  
C1032    C      0.913150000000     0.942490000000     0.979160000000    -0.00996672 
C1033    C      0.861720000000     0.908090000000     0.906490000000    -0.0546873  
C1034    C      0.815760000000     0.927640000000     0.926200000000    -0.0543027  
C1035    C      0.860720000000     0.929660000000     0.927700000000     0.0612903  
C1036    C      0.886400000000     0.972280000000     0.933260000000    -0.0288332  
C1037    C      0.816760000000     0.906120000000     0.904930000000     0.0599747  
C1038    C      0.790910000000     0.863620000000     0.900420000000    -0.0586844  
C1039    C      0.839980000000     0.896330000000     0.895160000000    -0.0560713  
C1040    C      0.764800000000     0.853300000000     0.892090000000     0.0814322  
C1041    C      0.765080000000     0.891820000000     0.852760000000    -0.00570684 
C1042    C      0.837520000000     0.939360000000     0.937580000000    -0.0571759  
C1043    C      0.745270000000     0.865100000000     0.913120000000    -0.184461   
C1044    C      0.791140000000     0.720590000000     0.901040000000    -0.0318011  
C1045    C      0.889890000000     0.616930000000     0.934410000000    -0.0291501  
C1046    C      0.915210000000     0.644980000000     0.982470000000    -0.0102962  
C1047    C      0.916270000000     0.607940000000     0.942220000000    -0.00884349 
C1048    C      0.863330000000     0.679840000000     0.909170000000    -0.054619   
C1049    C      0.817870000000     0.658040000000     0.928100000000    -0.0541285  
C1050    C      0.862860000000     0.658360000000     0.930520000000     0.0611081  
C1051    C      0.888870000000     0.652690000000     0.972930000000    -0.0289429  
C1052    C      0.818350000000     0.679470000000     0.906690000000     0.059884   
C1053    C      0.792740000000     0.683540000000     0.863870000000    -0.0586307  
C1054    C      0.841320000000     0.690360000000     0.897290000000    -0.0560958  
C1055    C      0.766350000000     0.690570000000     0.853450000000     0.0814184  
C1056    C      0.764760000000     0.729120000000     0.892750000000    -0.00640572 
C1057    C      0.839890000000     0.647500000000     0.939970000000    -0.0570706  
C1058    C      0.747730000000     0.668060000000     0.864500000000    -0.184662   
C1059    C      0.635680000000     0.862330000000     0.897710000000    -0.0322132  
C1060    C      0.548200000000     0.976910000000     0.938190000000    -0.0282699  
C1061    C      0.523380000000     0.948830000000     0.986710000000    -0.0108483  
C1062    C      0.522610000000     0.987590000000     0.947220000000    -0.0115961  
C1063    C      0.568420000000     0.911910000000     0.909730000000    -0.0546757  
C1064    C      0.616330000000     0.928050000000     0.925860000000    -0.0546869  
C1065    C      0.571790000000     0.933060000000     0.931030000000     0.0612943  
C1066    C      0.548880000000     0.940180000000     0.975410000000    -0.0284034  
C1067    C      0.612960000000     0.906770000000     0.904670000000     0.060174   
C1068    C      0.636370000000     0.899440000000     0.860710000000    -0.0589196  
C1069    C      0.588790000000     0.898830000000     0.896570000000    -0.0562696  
C1070    C      0.661760000000     0.889620000000     0.849410000000     0.0819604  
C1071    C      0.660850000000     0.850520000000     0.888480000000    -0.00566605 
C1072    C      0.595940000000     0.941180000000     0.938980000000    -0.0573653  
C1073    C      0.682310000000     0.910190000000     0.859610000000    -0.184883   
C1074    C      0.796180000000     0.891960000000     0.720700000000    -0.0317225  
C1075    C      0.883390000000     0.934510000000     0.607730000000    -0.0292661  
C1076    C      0.895170000000     0.993000000000     0.627040000000    -0.0107637  
C1077    C      0.894690000000     0.955940000000     0.586410000000    -0.0084361  
C1078    C      0.828130000000     0.932710000000     0.645350000000    -0.054844   
C1079    C      0.850290000000     0.892040000000     0.681870000000    -0.0542917  
C1080    C      0.853940000000     0.930870000000     0.646710000000     0.0615921  
C1081    C      0.883750000000     0.969880000000     0.646510000000    -0.028681   
C1082    C      0.824470000000     0.893970000000     0.680610000000     0.0604751  
C1083    C      0.793510000000     0.856150000000     0.682470000000    -0.0589357  
C1084    C      0.813430000000     0.914470000000     0.662160000000    -0.0562489  
C1085    C      0.781680000000     0.833640000000     0.702680000000     0.0822714  
C1086    C      0.784970000000     0.871380000000     0.742860000000    -0.00590272 
C1087    C      0.864990000000     0.910320000000     0.665090000000    -0.0570813  
C1088    C      0.800530000000     0.810470000000     0.711680000000    -0.184717   
Co1      Co     0.463500000000     0.499730000000     0.541150000000     0.833444   
Co2      Co     0.965380000000     0.084700000000     0.042650000000     0.830623   
Co3      Co     0.463500000000     0.541630000000     0.084680000000     0.832342   
Co4      Co     0.963740000000     0.542670000000     0.499180000000     0.833997   
Co5      Co     0.213430000000     0.289700000000     0.249710000000     0.832648   
Co6      Co     0.214950000000     0.290770000000     0.334590000000     0.832372   
Co7      Co     0.215480000000     0.332930000000     0.291610000000     0.831837   
Co8      Co     0.214420000000     0.247400000000     0.292380000000     0.831648   
Co9      Co     0.463500000000     0.499730000000     0.041150000000     0.833763   
Co10     Co     0.965380000000     0.084700000000     0.542650000000     0.830308   
Co11     Co     0.463500000000     0.541630000000     0.584680000000     0.832368   
Co12     Co     0.963740000000     0.542670000000     0.999180000000     0.832509   
Co13     Co     0.213430000000     0.289700000000     0.749710000000     0.832645   
Co14     Co     0.214950000000     0.290770000000     0.834590000000     0.832373   
Co15     Co     0.215480000000     0.332930000000     0.791610000000     0.831833   
Co16     Co     0.214420000000     0.247400000000     0.792380000000     0.831653   
Co17     Co     0.463500000000     0.999730000000     0.541150000000     0.83201    
Co18     Co     0.965380000000     0.584690000000     0.042650000000     0.830484   
Co19     Co     0.463500000000     0.041630000000     0.084680000000     0.832669   
Co20     Co     0.963740000000     0.042670000000     0.499180000000     0.834334   
Co21     Co     0.213430000000     0.789700000000     0.249710000000     0.832612   
Co22     Co     0.214950000000     0.790770000000     0.334590000000     0.832353   
Co23     Co     0.215480000000     0.832930000000     0.291610000000     0.831835   
Co24     Co     0.214420000000     0.747410000000     0.292380000000     0.831524   
Co25     Co     0.463500000000     0.999730000000     0.041150000000     0.832332   
Co26     Co     0.965380000000     0.584690000000     0.542650000000     0.830168   
Co27     Co     0.463500000000     0.041630000000     0.584680000000     0.832694   
Co28     Co     0.963740000000     0.042670000000     0.999180000000     0.832848   
Co29     Co     0.213430000000     0.789700000000     0.749710000000     0.83261    
Co30     Co     0.214950000000     0.790770000000     0.834590000000     0.832354   
Co31     Co     0.215480000000     0.832930000000     0.791610000000     0.83183    
Co32     Co     0.214420000000     0.747410000000     0.792380000000     0.831529   
Co33     Co     0.963510000000     0.499730000000     0.541150000000     0.833406   
Co34     Co     0.465380000000     0.084700000000     0.042650000000     0.830708   
Co35     Co     0.963500000000     0.541630000000     0.084680000000     0.832267   
Co36     Co     0.463740000000     0.542670000000     0.499180000000     0.834008   
Co37     Co     0.713430000000     0.289700000000     0.249710000000     0.832565   
Co38     Co     0.714950000000     0.290770000000     0.334590000000     0.83237    
Co39     Co     0.715480000000     0.332930000000     0.291610000000     0.831836   
Co40     Co     0.714420000000     0.247400000000     0.292380000000     0.831582   
Co41     Co     0.963510000000     0.499730000000     0.041150000000     0.833726   
Co42     Co     0.465380000000     0.084700000000     0.542650000000     0.830393   
Co43     Co     0.963500000000     0.541630000000     0.584680000000     0.832292   
Co44     Co     0.463740000000     0.542670000000     0.999180000000     0.83252    
Co45     Co     0.713430000000     0.289700000000     0.749710000000     0.832563   
Co46     Co     0.714950000000     0.290770000000     0.834590000000     0.832371   
Co47     Co     0.715480000000     0.332930000000     0.791610000000     0.831831   
Co48     Co     0.714420000000     0.247400000000     0.792380000000     0.831588   
Co49     Co     0.963510000000     0.999730000000     0.541150000000     0.831972   
Co50     Co     0.465380000000     0.584690000000     0.042650000000     0.830569   
Co51     Co     0.963500000000     0.041630000000     0.084680000000     0.832593   
Co52     Co     0.463740000000     0.042670000000     0.499180000000     0.834345   
Co53     Co     0.713430000000     0.789700000000     0.249710000000     0.83253    
Co54     Co     0.714950000000     0.790770000000     0.334590000000     0.832351   
Co55     Co     0.715480000000     0.832930000000     0.291610000000     0.831834   
Co56     Co     0.714420000000     0.747410000000     0.292380000000     0.831459   
Co57     Co     0.963510000000     0.999730000000     0.041150000000     0.832293   
Co58     Co     0.465380000000     0.584690000000     0.542650000000     0.830253   
Co59     Co     0.963500000000     0.041630000000     0.584680000000     0.832619   
Co60     Co     0.463740000000     0.042670000000     0.999180000000     0.832859   
Co61     Co     0.713430000000     0.789700000000     0.749710000000     0.832528   
Co62     Co     0.714950000000     0.790770000000     0.834590000000     0.832353   
Co63     Co     0.715480000000     0.832930000000     0.791610000000     0.831829   
Co64     Co     0.714420000000     0.747410000000     0.792380000000     0.831464   
H1       H      0.130850000000     0.163480000000     0.174240000000     0.0407044  
H2       H      0.049270000000     0.100720000000     0.172050000000     0.0337809  
H3       H      0.058880000000     0.159800000000     0.102800000000     0.0403714  
H4       H      0.123770000000     0.220030000000     0.266990000000     0.0364939  
H5       H      0.045240000000     0.072390000000     0.128700000000     0.0328983  
H6       H      0.115870000000     0.237080000000     0.177770000000     0.033802   
H7       H      0.115940000000     0.173780000000     0.244180000000     0.0337768  
H8       H      0.151060000000     0.262790000000     0.201370000000     0.0459566  
H9       H      0.024450000000     0.135150000000     0.075520000000     0.0259533  
H10      H      0.106430000000     0.131160000000     0.143350000000     0.0419797  
H11      H      0.015290000000     0.075670000000     0.145000000000     0.0451385  
H12      H      0.063760000000     0.203760000000     0.204660000000     0.0438119  
H13      H      0.024210000000     0.124370000000     0.161800000000     0.0373528  
H14      H      0.151420000000     0.198560000000     0.268380000000     0.0456664  
H15      H      0.142850000000     0.214530000000     0.182270000000     0.038702   
H16      H      0.142920000000     0.177170000000     0.221460000000     0.038336   
H17      H      0.039350000000     0.171820000000     0.173210000000     0.0398529  
H18      H      0.029850000000     0.158230000000     0.121600000000     0.0426192  
H19      H      0.123480000000     0.262050000000     0.223000000000     0.0369593  
H20      H      0.067610000000     0.125610000000     0.062360000000     0.0603155  
H21      H      0.049840000000     0.092780000000     0.059060000000     0.0693114  
H22      H      0.070190000000     0.097650000000     0.089470000000     0.0692089  
H23      H      0.136020000000     0.164010000000     0.419920000000     0.0398592  
H24      H      0.059900000000     0.159910000000     0.487220000000     0.0333105  
H25      H      0.058380000000     0.096380000000     0.421050000000     0.0407146  
H26      H      0.128230000000     0.260290000000     0.367600000000     0.0378452  
H27      H      0.053500000000     0.113860000000     0.510670000000     0.0311876  
H28      H      0.120920000000     0.170780000000     0.348580000000     0.0334836  
H29      H      0.121340000000     0.235900000000     0.413150000000     0.0337976  
H30      H      0.155760000000     0.195250000000     0.322980000000     0.0450749  
H31      H      0.022100000000     0.072310000000     0.445800000000     0.0267703  
H32      H      0.111570000000     0.131760000000     0.450930000000     0.0418165  
H33      H      0.025760000000     0.134980000000     0.513380000000     0.0451627  
H34      H      0.068820000000     0.199760000000     0.384630000000     0.0440656  
H35      H      0.032430000000     0.155750000000     0.465450000000     0.0388425  
H36      H      0.156400000000     0.261030000000     0.388130000000     0.0456262  
H37      H      0.148120000000     0.175360000000     0.370720000000     0.036952   
H38      H      0.148340000000     0.213420000000     0.408550000000     0.0374455  
H39      H      0.044370000000     0.167640000000     0.415760000000     0.0406509  
H40      H      0.031780000000     0.118870000000     0.426870000000     0.0438462  
H41      H      0.127800000000     0.216190000000     0.323960000000     0.0366717  
H42      H      0.063580000000     0.051160000000     0.449510000000     0.0606108  
H43      H      0.047290000000     0.046560000000     0.483080000000     0.0718288  
H44      H      0.071030000000     0.073850000000     0.480100000000     0.0693494  
H45      H      0.134460000000     0.416260000000     0.161670000000     0.0403161  
H46      H      0.053290000000     0.416920000000     0.099750000000     0.0341154  
H47      H      0.059360000000     0.485860000000     0.159830000000     0.0404299  
H48      H      0.127480000000     0.323200000000     0.219720000000     0.0374778  
H49      H      0.046300000000     0.460200000000     0.071770000000     0.0352321  
H50      H      0.123440000000     0.413970000000     0.234790000000     0.0337304  
H51      H      0.118890000000     0.345800000000     0.173730000000     0.0338755  
H52      H      0.159360000000     0.389400000000     0.258950000000     0.0453002  
H53      H      0.023750000000     0.511260000000     0.135570000000     0.0266392  
H54      H      0.108930000000     0.446390000000     0.129690000000     0.0421563  
H55      H      0.017370000000     0.441740000000     0.075760000000     0.0447839  
H56      H      0.068640000000     0.385280000000     0.204220000000     0.0439379  
H57      H      0.027880000000     0.424710000000     0.123750000000     0.037871   
H58      H      0.154550000000     0.320710000000     0.197470000000     0.04573    
H59      H      0.149200000000     0.407310000000     0.210950000000     0.0374821  
H60      H      0.146580000000     0.367480000000     0.175410000000     0.0377747  
H61      H      0.043120000000     0.415550000000     0.172330000000     0.0404408  
H62      H      0.031320000000     0.465150000000     0.158010000000     0.0436662  
H63      H      0.130740000000     0.369930000000     0.261600000000     0.0383623  
H64      H      0.066910000000     0.526160000000     0.125910000000     0.0603694  
H65      H      0.048080000000     0.530420000000     0.094060000000     0.0695586  
H66      H      0.069300000000     0.500450000000     0.096740000000     0.0703149  
H67      H      0.342160000000     0.205540000000     0.205090000000     0.0396429  
H68      H      0.384990000000     0.109930000000     0.173620000000     0.0344775  
H69      H      0.385710000000     0.175180000000     0.109140000000     0.0407878  
H70      H      0.252670000000     0.175120000000     0.219890000000     0.0389332  
H71      H      0.427570000000     0.114280000000     0.158340000000     0.0364245  
H72      H      0.294460000000     0.225530000000     0.160510000000     0.0330865  
H73      H      0.295300000000     0.160120000000     0.224770000000     0.0340502  
H74      H      0.263370000000     0.253690000000     0.189040000000     0.0447845  
H75      H      0.415640000000     0.145280000000     0.079790000000     0.0249805  
H76      H      0.380670000000     0.185750000000     0.184960000000     0.0424349  
H77      H      0.415410000000     0.080610000000     0.145440000000     0.0453662  
H78      H      0.299800000000     0.150240000000     0.148690000000     0.0441215  
H79      H      0.374700000000     0.101350000000     0.137550000000     0.0380425  
H80      H      0.264240000000     0.187730000000     0.253980000000     0.0451096  
H81      H      0.304750000000     0.234370000000     0.196530000000     0.0345582  
H82      H      0.305260000000     0.196200000000     0.234000000000     0.0368859  
H83      H      0.338260000000     0.130530000000     0.128510000000     0.0404074  
H84      H      0.375320000000     0.139430000000     0.100100000000     0.0432945  
H85      H      0.252080000000     0.219510000000     0.176150000000     0.0394842  
H86      H      0.430560000000     0.186990000000     0.107640000000     0.0632112  
H87      H      0.453210000000     0.158490000000     0.108340000000     0.0756606  
H88      H      0.434180000000     0.165090000000     0.139690000000     0.0722557  
H89      H      0.336240000000     0.455930000000     0.454040000000     0.0402749  
H90      H      0.293970000000     0.423520000000     0.357980000000     0.0339169  
H91      H      0.294030000000     0.359700000000     0.423890000000     0.0408084  
H92      H      0.425790000000     0.472220000000     0.425520000000     0.039669   
H93      H      0.251630000000     0.407290000000     0.362340000000     0.0330828  
H94      H      0.384170000000     0.410910000000     0.473620000000     0.0340647  
H95      H      0.383280000000     0.476870000000     0.409930000000     0.0343035  
H96      H      0.414630000000     0.439150000000     0.502900000000     0.0457461  
H97      H      0.264730000000     0.329310000000     0.394230000000     0.0247363  
H98      H      0.298040000000     0.435320000000     0.433970000000     0.0421876  
H99      H      0.264120000000     0.394310000000     0.328890000000     0.0435838  
H100     H      0.379440000000     0.400370000000     0.398750000000     0.0442453  
H101     H      0.304860000000     0.387540000000     0.349820000000     0.0375625  
H102     H      0.413690000000     0.505890000000     0.438700000000     0.0454347  
H103     H      0.373350000000     0.446560000000     0.483250000000     0.0374077  
H104     H      0.372810000000     0.485120000000     0.446010000000     0.0375008  
H105     H      0.341290000000     0.379650000000     0.378820000000     0.0401302  
H106     H      0.304730000000     0.350430000000     0.388350000000     0.0430886  
H107     H      0.426390000000     0.427460000000     0.468540000000     0.0396572  
H108     H      0.249090000000     0.357370000000     0.435410000000     0.0628036  
H109     H      0.226620000000     0.357300000000     0.406730000000     0.0748548  
H110     H      0.245130000000     0.389130000000     0.413120000000     0.0707058  
H111     H      0.339000000000     0.130830000000     0.456340000000     0.0404862  
H112     H      0.293700000000     0.224940000000     0.424510000000     0.0341928  
H113     H      0.296900000000     0.160340000000     0.359490000000     0.0407989  
H114     H      0.428220000000     0.160950000000     0.472890000000     0.0390725  
H115     H      0.251680000000     0.218480000000     0.407950000000     0.0362681  
H116     H      0.387220000000     0.113490000000     0.410800000000     0.0343259  
H117     H      0.385500000000     0.175910000000     0.477950000000     0.0340558  
H118     H      0.418260000000     0.084370000000     0.438050000000     0.0460483  
H119     H      0.266540000000     0.189030000000     0.329440000000     0.0244407  
H120     H      0.300360000000     0.149450000000     0.435530000000     0.042533   
H121     H      0.262810000000     0.252880000000     0.395710000000     0.0448661  
H122     H      0.380850000000     0.188320000000     0.401630000000     0.0440858  
H123     H      0.304440000000     0.234350000000     0.388830000000     0.0376879  
H124     H      0.416350000000     0.147040000000     0.506370000000     0.0450146  
H125     H      0.376570000000     0.102820000000     0.446190000000     0.0380502  
H126     H      0.375450000000     0.139490000000     0.485560000000     0.0375019  
H127     H      0.342220000000     0.206910000000     0.380790000000     0.0401576  
H128     H      0.306120000000     0.196690000000     0.351110000000     0.0429306  
H129     H      0.429320000000     0.119460000000     0.427640000000     0.0390278  
H130     H      0.252650000000     0.146190000000     0.356350000000     0.0629605  
H131     H      0.228880000000     0.173430000000     0.356590000000     0.0755268  
H132     H      0.247400000000     0.167500000000     0.388490000000     0.0722064  
H133     H      0.099000000000     0.457540000000     0.455330000000     0.0388806  
H134     H      0.133310000000     0.358160000000     0.421250000000     0.0338706  
H135     H      0.133920000000     0.422990000000     0.356400000000     0.040445   
H136     H      0.009550000000     0.432820000000     0.478910000000     0.0416015  
H137     H      0.175180000000     0.358700000000     0.403680000000     0.034717   
H138     H      0.050540000000     0.481080000000     0.414650000000     0.0330422  
H139     H      0.051690000000     0.416730000000     0.479840000000     0.033783   
H140     H      0.022310000000     0.511590000000     0.445410000000     0.0440822  
H141     H      0.161040000000     0.390960000000     0.325400000000     0.0248023  
H142     H      0.134830000000     0.434380000000     0.432230000000     0.041772   
H143     H      0.160400000000     0.326550000000     0.390560000000     0.043959   
H144     H      0.049930000000     0.405530000000     0.403390000000     0.0445183  
H145     H      0.120860000000     0.350460000000     0.385920000000     0.0368526  
H146     H      0.023690000000     0.447550000000     0.510720000000     0.0445737  
H147     H      0.062630000000     0.489410000000     0.450010000000     0.0328418  
H148     H      0.063360000000     0.452490000000     0.487350000000     0.0344989  
H149     H      0.085700000000     0.382510000000     0.380200000000     0.0401936  
H150     H      0.121640000000     0.387770000000     0.348560000000     0.042453   
H151     H      0.008690000000     0.478990000000     0.431750000000     0.041824   
H152     H      0.178690000000     0.432520000000     0.351820000000     0.0628553  
H153     H      0.200450000000     0.403110000000     0.350800000000     0.0780732  
H154     H      0.183550000000     0.410470000000     0.383570000000     0.0710126  
H155     H      0.384910000000     0.408490000000     0.166520000000     0.040532   
H156     H      0.308790000000     0.407110000000     0.232240000000     0.0341863  
H157     H      0.304030000000     0.344870000000     0.165100000000     0.040792   
H158     H      0.380250000000     0.507720000000     0.119450000000     0.0390604  
H159     H      0.300150000000     0.361830000000     0.255980000000     0.0361015  
H160     H      0.371610000000     0.419060000000     0.095430000000     0.0339892  
H161     H      0.372200000000     0.480860000000     0.163140000000     0.0341726  
H162     H      0.407440000000     0.443890000000     0.071890000000     0.0457659  
H163     H      0.266950000000     0.322510000000     0.190070000000     0.0244646  
H164     H      0.358990000000     0.376440000000     0.196070000000     0.0426909  
H165     H      0.273140000000     0.384240000000     0.257730000000     0.0445881  
H166     H      0.319420000000     0.448440000000     0.131300000000     0.0440414  
H167     H      0.281140000000     0.404900000000     0.210520000000     0.0379374  
H168     H      0.408300000000     0.506070000000     0.140140000000     0.0448148  
H169     H      0.398490000000     0.422020000000     0.118370000000     0.037689   
H170     H      0.398790000000     0.457900000000     0.157800000000     0.0376588  
H171     H      0.293510000000     0.416480000000     0.160920000000     0.0402384  
H172     H      0.278500000000     0.368760000000     0.171820000000     0.0430559  
H173     H      0.379660000000     0.465110000000     0.072800000000     0.0390331  
H174     H      0.307800000000     0.299050000000     0.192340000000     0.0618527  
H175     H      0.291530000000     0.294160000000     0.225830000000     0.0772607  
H176     H      0.316260000000     0.320300000000     0.223610000000     0.0721377  
H177     H      0.130850000000     0.163480000000     0.674230000000     0.040662   
H178     H      0.049270000000     0.100720000000     0.672050000000     0.033783   
H179     H      0.058880000000     0.159800000000     0.602800000000     0.0402817  
H180     H      0.123770000000     0.220030000000     0.766990000000     0.0364963  
H181     H      0.045240000000     0.072390000000     0.628700000000     0.032887   
H182     H      0.115870000000     0.237080000000     0.677770000000     0.0337549  
H183     H      0.115940000000     0.173780000000     0.744180000000     0.0337795  
H184     H      0.151060000000     0.262790000000     0.701370000000     0.0459321  
H185     H      0.024450000000     0.135150000000     0.575520000000     0.0259129  
H186     H      0.106430000000     0.131160000000     0.643350000000     0.0419246  
H187     H      0.015290000000     0.075670000000     0.645000000000     0.0451448  
H188     H      0.063760000000     0.203760000000     0.704660000000     0.0438032  
H189     H      0.024210000000     0.124370000000     0.661800000000     0.037356   
H190     H      0.151420000000     0.198560000000     0.768380000000     0.0456663  
H191     H      0.142850000000     0.214530000000     0.682270000000     0.0386602  
H192     H      0.142920000000     0.177170000000     0.721460000000     0.0383273  
H193     H      0.039350000000     0.171820000000     0.673210000000     0.0398447  
H194     H      0.029850000000     0.158230000000     0.621600000000     0.0425797  
H195     H      0.123480000000     0.262050000000     0.723000000000     0.036955   
H196     H      0.067610000000     0.125610000000     0.562360000000     0.0601536  
H197     H      0.049840000000     0.092780000000     0.559060000000     0.0691603  
H198     H      0.070190000000     0.097650000000     0.589470000000     0.0691124  
H199     H      0.136020000000     0.164010000000     0.919920000000     0.0398135  
H200     H      0.059900000000     0.159910000000     0.987220000000     0.0328606  
H201     H      0.058380000000     0.096380000000     0.921050000000     0.0406957  
H202     H      0.128230000000     0.260290000000     0.867600000000     0.037819   
H203     H      0.053500000000     0.113860000000     0.010670000000     0.0324788  
H204     H      0.120920000000     0.170780000000     0.848580000000     0.0334803  
H205     H      0.121340000000     0.235900000000     0.913150000000     0.0337254  
H206     H      0.155760000000     0.195250000000     0.822980000000     0.0450849  
H207     H      0.022100000000     0.072310000000     0.945800000000     0.0268186  
H208     H      0.111570000000     0.131760000000     0.950930000000     0.0417012  
H209     H      0.025760000000     0.134980000000     0.013380000000     0.046368   
H210     H      0.068820000000     0.199760000000     0.884630000000     0.0440518  
H211     H      0.032430000000     0.155750000000     0.965450000000     0.0385535  
H212     H      0.156400000000     0.261030000000     0.888130000000     0.0455826  
H213     H      0.148120000000     0.175360000000     0.870720000000     0.0369346  
H214     H      0.148340000000     0.213420000000     0.908550000000     0.037392   
H215     H      0.044370000000     0.167640000000     0.915760000000     0.0406216  
H216     H      0.031780000000     0.118870000000     0.926870000000     0.0438283  
H217     H      0.127800000000     0.216190000000     0.823960000000     0.0366822  
H218     H      0.063580000000     0.051160000000     0.949510000000     0.0605512  
H219     H      0.047290000000     0.046560000000     0.983080000000     0.0716454  
H220     H      0.071030000000     0.073850000000     0.980100000000     0.0691136  
H221     H      0.134460000000     0.416260000000     0.661670000000     0.0402688  
H222     H      0.053290000000     0.416920000000     0.599750000000     0.0340099  
H223     H      0.059360000000     0.485860000000     0.659830000000     0.0404251  
H224     H      0.127480000000     0.323200000000     0.719720000000     0.0374736  
H225     H      0.046300000000     0.460200000000     0.571770000000     0.0350891  
H226     H      0.123440000000     0.413970000000     0.734790000000     0.0337311  
H227     H      0.118890000000     0.345800000000     0.673730000000     0.0338254  
H228     H      0.159360000000     0.389400000000     0.758950000000     0.0452992  
H229     H      0.023750000000     0.511260000000     0.635570000000     0.0266501  
H230     H      0.108930000000     0.446390000000     0.629690000000     0.0420764  
H231     H      0.017370000000     0.441740000000     0.575760000000     0.0446979  
H232     H      0.068640000000     0.385280000000     0.704230000000     0.0439075  
H233     H      0.027880000000     0.424710000000     0.623750000000     0.0378425  
H234     H      0.154550000000     0.320710000000     0.697470000000     0.0457025  
H235     H      0.149200000000     0.407310000000     0.710950000000     0.0374675  
H236     H      0.146580000000     0.367480000000     0.675410000000     0.0377267  
H237     H      0.043120000000     0.415550000000     0.672330000000     0.0404387  
H238     H      0.031320000000     0.465150000000     0.658010000000     0.0436684  
H239     H      0.130740000000     0.369930000000     0.761600000000     0.0383649  
H240     H      0.066910000000     0.526160000000     0.625910000000     0.0603276  
H241     H      0.048080000000     0.530420000000     0.594060000000     0.069469   
H242     H      0.069300000000     0.500450000000     0.596740000000     0.0702023  
H243     H      0.342160000000     0.205540000000     0.705090000000     0.0396403  
H244     H      0.384990000000     0.109930000000     0.673620000000     0.0344772  
H245     H      0.385710000000     0.175180000000     0.609140000000     0.0406984  
H246     H      0.252670000000     0.175120000000     0.719890000000     0.0389151  
H247     H      0.427570000000     0.114280000000     0.658340000000     0.0364339  
H248     H      0.294460000000     0.225530000000     0.660510000000     0.0330219  
H249     H      0.295300000000     0.160120000000     0.724770000000     0.0340474  
H250     H      0.263370000000     0.253690000000     0.689040000000     0.0447569  
H251     H      0.415640000000     0.145280000000     0.579790000000     0.0248957  
H252     H      0.380670000000     0.185750000000     0.684960000000     0.042428   
H253     H      0.415410000000     0.080610000000     0.645440000000     0.0453636  
H254     H      0.299800000000     0.150240000000     0.648690000000     0.0440548  
H255     H      0.374700000000     0.101350000000     0.637550000000     0.0380048  
H256     H      0.264240000000     0.187730000000     0.753980000000     0.0451104  
H257     H      0.304750000000     0.234370000000     0.696530000000     0.03455    
H258     H      0.305260000000     0.196200000000     0.734000000000     0.0368911  
H259     H      0.338260000000     0.130530000000     0.628510000000     0.0403363  
H260     H      0.375320000000     0.139430000000     0.600100000000     0.043189   
H261     H      0.252080000000     0.219510000000     0.676150000000     0.0394299  
H262     H      0.430560000000     0.186990000000     0.607640000000     0.0631237  
H263     H      0.453210000000     0.158490000000     0.608340000000     0.075618   
H264     H      0.434180000000     0.165090000000     0.639690000000     0.0722401  
H265     H      0.336240000000     0.455930000000     0.954040000000     0.0401769  
H266     H      0.293970000000     0.423520000000     0.857980000000     0.0339136  
H267     H      0.294030000000     0.359700000000     0.923890000000     0.0407286  
H268     H      0.425790000000     0.472220000000     0.925520000000     0.0396923  
H269     H      0.251630000000     0.407290000000     0.862350000000     0.0330703  
H270     H      0.384170000000     0.410910000000     0.973620000000     0.0337826  
H271     H      0.383280000000     0.476870000000     0.909930000000     0.0342907  
H272     H      0.414630000000     0.439150000000     0.002900000000     0.0467437  
H273     H      0.264730000000     0.329310000000     0.894230000000     0.0247156  
H274     H      0.298040000000     0.435320000000     0.933970000000     0.0421095  
H275     H      0.264120000000     0.394310000000     0.828890000000     0.043584   
H276     H      0.379440000000     0.400370000000     0.898750000000     0.0442219  
H277     H      0.304860000000     0.387540000000     0.849820000000     0.0375665  
H278     H      0.413690000000     0.505890000000     0.938700000000     0.0454383  
H279     H      0.373350000000     0.446560000000     0.983250000000     0.0371002  
H280     H      0.372810000000     0.485120000000     0.946010000000     0.0374265  
H281     H      0.341290000000     0.379650000000     0.878820000000     0.0401213  
H282     H      0.304730000000     0.350430000000     0.888350000000     0.0430648  
H283     H      0.426390000000     0.427460000000     0.968540000000     0.0397808  
H284     H      0.249090000000     0.357370000000     0.935410000000     0.0626898  
H285     H      0.226620000000     0.357300000000     0.906730000000     0.0748097  
H286     H      0.245130000000     0.389130000000     0.913120000000     0.0706459  
H287     H      0.339000000000     0.130830000000     0.956340000000     0.0403869  
H288     H      0.293700000000     0.224940000000     0.924510000000     0.0341082  
H289     H      0.296900000000     0.160340000000     0.859490000000     0.0407949  
H290     H      0.428220000000     0.160950000000     0.972890000000     0.0391822  
H291     H      0.251680000000     0.218480000000     0.907950000000     0.0362025  
H292     H      0.387220000000     0.113490000000     0.910800000000     0.0343151  
H293     H      0.385500000000     0.175910000000     0.977950000000     0.033769   
H294     H      0.418260000000     0.084370000000     0.938040000000     0.0460385  
H295     H      0.266540000000     0.189030000000     0.829440000000     0.0244457  
H296     H      0.300360000000     0.149450000000     0.935530000000     0.0424526  
H297     H      0.262810000000     0.252880000000     0.895720000000     0.0448124  
H298     H      0.380850000000     0.188320000000     0.901620000000     0.0440455  
H299     H      0.304440000000     0.234350000000     0.888830000000     0.0376697  
H300     H      0.416350000000     0.147040000000     0.006370000000     0.0460099  
H301     H      0.376570000000     0.102820000000     0.946190000000     0.037984   
H302     H      0.375450000000     0.139490000000     0.985560000000     0.0372015  
H303     H      0.342220000000     0.206910000000     0.880790000000     0.0401509  
H304     H      0.306120000000     0.196690000000     0.851110000000     0.0429331  
H305     H      0.429320000000     0.119460000000     0.927640000000     0.0390375  
H306     H      0.252650000000     0.146190000000     0.856350000000     0.0629409  
H307     H      0.228880000000     0.173430000000     0.856590000000     0.0755094  
H308     H      0.247400000000     0.167500000000     0.888490000000     0.0721608  
H309     H      0.099000000000     0.457540000000     0.955330000000     0.0387871  
H310     H      0.133310000000     0.358160000000     0.921250000000     0.0337895  
H311     H      0.133920000000     0.422990000000     0.856400000000     0.040443   
H312     H      0.009550000000     0.432820000000     0.978910000000     0.0416884  
H313     H      0.175180000000     0.358700000000     0.903680000000     0.0346711  
H314     H      0.050540000000     0.481080000000     0.914650000000     0.0330343  
H315     H      0.051690000000     0.416730000000     0.979840000000     0.0334959  
H316     H      0.022310000000     0.511590000000     0.945410000000     0.0440987  
H317     H      0.161040000000     0.390960000000     0.825400000000     0.0248061  
H318     H      0.134830000000     0.434380000000     0.932230000000     0.0416979  
H319     H      0.160400000000     0.326550000000     0.890560000000     0.0439259  
H320     H      0.049930000000     0.405530000000     0.903390000000     0.0444926  
H321     H      0.120860000000     0.350460000000     0.885920000000     0.0368311  
H322     H      0.023690000000     0.447550000000     0.010720000000     0.0455479  
H323     H      0.062630000000     0.489410000000     0.950010000000     0.0327823  
H324     H      0.063360000000     0.452490000000     0.987350000000     0.034194   
H325     H      0.085700000000     0.382510000000     0.880200000000     0.0401833  
H326     H      0.121640000000     0.387770000000     0.848560000000     0.0424537  
H327     H      0.008690000000     0.478990000000     0.931750000000     0.0418484  
H328     H      0.178690000000     0.432520000000     0.851820000000     0.0628403  
H329     H      0.200450000000     0.403110000000     0.850800000000     0.0780716  
H330     H      0.183550000000     0.410470000000     0.883570000000     0.0709795  
H331     H      0.384910000000     0.408490000000     0.666520000000     0.0405227  
H332     H      0.308790000000     0.407110000000     0.732240000000     0.0341721  
H333     H      0.304030000000     0.344870000000     0.665100000000     0.0407366  
H334     H      0.380250000000     0.507720000000     0.619460000000     0.0389922  
H335     H      0.300150000000     0.361830000000     0.755980000000     0.0361422  
H336     H      0.371610000000     0.419060000000     0.595430000000     0.0338766  
H337     H      0.372200000000     0.480860000000     0.663140000000     0.0341684  
H338     H      0.407440000000     0.443890000000     0.571890000000     0.0456636  
H339     H      0.266950000000     0.322510000000     0.690070000000     0.0244396  
H340     H      0.358990000000     0.376440000000     0.696070000000     0.0426798  
H341     H      0.273140000000     0.384240000000     0.757730000000     0.0446237  
H342     H      0.319420000000     0.448440000000     0.631300000000     0.043961   
H343     H      0.281140000000     0.404900000000     0.710520000000     0.0379061  
H344     H      0.408300000000     0.506070000000     0.640150000000     0.0447916  
H345     H      0.398490000000     0.422020000000     0.618360000000     0.0376603  
H346     H      0.398790000000     0.457900000000     0.657800000000     0.0376661  
H347     H      0.293510000000     0.416480000000     0.660920000000     0.0401889  
H348     H      0.278500000000     0.368760000000     0.671820000000     0.0430104  
H349     H      0.379660000000     0.465110000000     0.572800000000     0.0388731  
H350     H      0.307800000000     0.299050000000     0.692340000000     0.061809   
H351     H      0.291530000000     0.294160000000     0.725840000000     0.077215   
H352     H      0.316260000000     0.320300000000     0.723610000000     0.0721145  
H353     H      0.130850000000     0.663480000000     0.174240000000     0.0406669  
H354     H      0.049270000000     0.600720000000     0.172050000000     0.0336898  
H355     H      0.058880000000     0.659800000000     0.102800000000     0.0403686  
H356     H      0.123770000000     0.720030000000     0.266990000000     0.036494   
H357     H      0.045240000000     0.572390000000     0.128700000000     0.0328322  
H358     H      0.115870000000     0.737080000000     0.177770000000     0.0338036  
H359     H      0.115940000000     0.673770000000     0.244180000000     0.0337107  
H360     H      0.151060000000     0.762790000000     0.201370000000     0.0459564  
H361     H      0.024450000000     0.635150000000     0.075520000000     0.0259645  
H362     H      0.106430000000     0.631160000000     0.143350000000     0.0419145  
H363     H      0.015290000000     0.575670000000     0.145000000000     0.0450745  
H364     H      0.063760000000     0.703760000000     0.204660000000     0.0438077  
H365     H      0.024210000000     0.624370000000     0.161800000000     0.0373263  
H366     H      0.151420000000     0.698560000000     0.268380000000     0.0456493  
H367     H      0.142850000000     0.714530000000     0.182270000000     0.0386916  
H368     H      0.142920000000     0.677170000000     0.221460000000     0.0382869  
H369     H      0.039350000000     0.671820000000     0.173210000000     0.0398448  
H370     H      0.029850000000     0.658230000000     0.121600000000     0.0426223  
H371     H      0.123480000000     0.762050000000     0.223000000000     0.0369617  
H372     H      0.067610000000     0.625610000000     0.062360000000     0.060282   
H373     H      0.049840000000     0.592780000000     0.059060000000     0.0692424  
H374     H      0.070190000000     0.597650000000     0.089470000000     0.0691376  
H375     H      0.136020000000     0.664010000000     0.419920000000     0.0398215  
H376     H      0.059900000000     0.659910000000     0.487220000000     0.0333151  
H377     H      0.058380000000     0.596380000000     0.421050000000     0.0406126  
H378     H      0.128230000000     0.760290000000     0.367600000000     0.0378489  
H379     H      0.053500000000     0.613860000000     0.510670000000     0.0311399  
H380     H      0.120920000000     0.670780000000     0.348580000000     0.0334338  
H381     H      0.121340000000     0.735900000000     0.413150000000     0.0337996  
H382     H      0.155760000000     0.695250000000     0.322980000000     0.045053   
H383     H      0.022100000000     0.572310000000     0.445800000000     0.0267311  
H384     H      0.111570000000     0.631760000000     0.450930000000     0.041751   
H385     H      0.025760000000     0.634980000000     0.513380000000     0.0451439  
H386     H      0.068820000000     0.699760000000     0.384630000000     0.0440607  
H387     H      0.032430000000     0.655750000000     0.465450000000     0.0388526  
H388     H      0.156400000000     0.761030000000     0.388130000000     0.0456278  
H389     H      0.148120000000     0.675360000000     0.370720000000     0.0369114  
H390     H      0.148340000000     0.713420000000     0.408550000000     0.0374361  
H391     H      0.044370000000     0.667640000000     0.415760000000     0.0406378  
H392     H      0.031780000000     0.618870000000     0.426870000000     0.0438051  
H393     H      0.127800000000     0.716190000000     0.323960000000     0.0366675  
H394     H      0.063580000000     0.551160000000     0.449510000000     0.060339   
H395     H      0.047290000000     0.546550000000     0.483080000000     0.0715402  
H396     H      0.071030000000     0.573850000000     0.480100000000     0.0691941  
H397     H      0.134460000000     0.916260000000     0.161670000000     0.0402637  
H398     H      0.053290000000     0.916920000000     0.099750000000     0.0340925  
H399     H      0.059360000000     0.985860000000     0.159830000000     0.0400076  
H400     H      0.127480000000     0.823200000000     0.219720000000     0.0375225  
H401     H      0.046300000000     0.960200000000     0.071770000000     0.0351125  
H402     H      0.123440000000     0.913970000000     0.234790000000     0.0336615  
H403     H      0.118890000000     0.845800000000     0.173730000000     0.0338617  
H404     H      0.159360000000     0.889400000000     0.258950000000     0.0452501  
H405     H      0.023750000000     0.011260000000     0.135570000000     0.0277343  
H406     H      0.108930000000     0.946400000000     0.129690000000     0.0419992  
H407     H      0.017370000000     0.941740000000     0.075760000000     0.0447938  
H408     H      0.068640000000     0.885280000000     0.204220000000     0.0439202  
H409     H      0.027880000000     0.924710000000     0.123750000000     0.0378526  
H410     H      0.154550000000     0.820710000000     0.197470000000     0.0457723  
H411     H      0.149200000000     0.907300000000     0.210950000000     0.037442   
H412     H      0.146580000000     0.867480000000     0.175410000000     0.0377435  
H413     H      0.043120000000     0.915550000000     0.172330000000     0.0404     
H414     H      0.031320000000     0.965150000000     0.158010000000     0.0433987  
H415     H      0.130740000000     0.869930000000     0.261600000000     0.0383355  
H416     H      0.066910000000     0.026160000000     0.125910000000     0.0603048  
H417     H      0.048080000000     0.030420000000     0.094060000000     0.0694393  
H418     H      0.069300000000     0.000450000000     0.096740000000     0.0704767  
H419     H      0.342160000000     0.705540000000     0.205090000000     0.0396387  
H420     H      0.384990000000     0.609930000000     0.173620000000     0.0343937  
H421     H      0.385710000000     0.675180000000     0.109140000000     0.040787   
H422     H      0.252670000000     0.675120000000     0.219890000000     0.0388823  
H423     H      0.427570000000     0.614280000000     0.158340000000     0.0363906  
H424     H      0.294460000000     0.725530000000     0.160510000000     0.0330845  
H425     H      0.295300000000     0.660120000000     0.224770000000     0.033988   
H426     H      0.263370000000     0.753690000000     0.189040000000     0.0447834  
H427     H      0.415640000000     0.645280000000     0.079790000000     0.0249793  
H428     H      0.380670000000     0.685750000000     0.184960000000     0.0424258  
H429     H      0.415410000000     0.580610000000     0.145440000000     0.0452964  
H430     H      0.299800000000     0.650240000000     0.148690000000     0.0440614  
H431     H      0.374700000000     0.601350000000     0.137550000000     0.0379627  
H432     H      0.264240000000     0.687730000000     0.253980000000     0.045079   
H433     H      0.304750000000     0.734370000000     0.196530000000     0.0345623  
H434     H      0.305260000000     0.696200000000     0.234000000000     0.0368736  
H435     H      0.338260000000     0.630530000000     0.128510000000     0.040347   
H436     H      0.375320000000     0.639430000000     0.100100000000     0.0432627  
H437     H      0.252080000000     0.719510000000     0.176150000000     0.0394668  
H438     H      0.430560000000     0.686990000000     0.107640000000     0.0632173  
H439     H      0.453210000000     0.658490000000     0.108340000000     0.075666   
H440     H      0.434180000000     0.665090000000     0.139690000000     0.0722493  
H441     H      0.336240000000     0.955930000000     0.454040000000     0.0401763  
H442     H      0.293970000000     0.923520000000     0.357980000000     0.0338296  
H443     H      0.294030000000     0.859700000000     0.423890000000     0.0407947  
H444     H      0.425790000000     0.972220000000     0.425520000000     0.0397837  
H445     H      0.251630000000     0.907290000000     0.362340000000     0.0330319  
H446     H      0.384170000000     0.910910000000     0.473620000000     0.0340526  
H447     H      0.383280000000     0.976870000000     0.409930000000     0.0340192  
H448     H      0.414630000000     0.939150000000     0.502900000000     0.0457538  
H449     H      0.264730000000     0.829310000000     0.394230000000     0.0247421  
H450     H      0.298040000000     0.935320000000     0.433970000000     0.0421054  
H451     H      0.264120000000     0.894310000000     0.328890000000     0.0435456  
H452     H      0.379440000000     0.900370000000     0.398750000000     0.0442203  
H453     H      0.304860000000     0.887540000000     0.349820000000     0.0375409  
H454     H      0.413690000000     0.005890000000     0.438700000000     0.0464321  
H455     H      0.373350000000     0.946560000000     0.483250000000     0.0373386  
H456     H      0.372810000000     0.985120000000     0.446010000000     0.0372012  
H457     H      0.341290000000     0.879650000000     0.378820000000     0.0401205  
H458     H      0.304730000000     0.850430000000     0.388350000000     0.0430815  
H459     H      0.426390000000     0.927460000000     0.468540000000     0.0396771  
H460     H      0.249090000000     0.857370000000     0.435410000000     0.062772   
H461     H      0.226620000000     0.857300000000     0.406730000000     0.0748317  
H462     H      0.245130000000     0.889130000000     0.413120000000     0.0706545  
H463     H      0.339000000000     0.630820000000     0.456340000000     0.0403888  
H464     H      0.293700000000     0.724940000000     0.424510000000     0.0341906  
H465     H      0.296900000000     0.660340000000     0.359490000000     0.0407395  
H466     H      0.428220000000     0.660950000000     0.472890000000     0.0390798  
H467     H      0.251680000000     0.718480000000     0.407950000000     0.0362578  
H468     H      0.387220000000     0.613490000000     0.410800000000     0.0342404  
H469     H      0.385500000000     0.675910000000     0.477950000000     0.0340564  
H470     H      0.418260000000     0.584370000000     0.438050000000     0.0459592  
H471     H      0.266540000000     0.689030000000     0.329440000000     0.0244272  
H472     H      0.300360000000     0.649450000000     0.435530000000     0.0424787  
H473     H      0.262810000000     0.752880000000     0.395710000000     0.044868   
H474     H      0.380850000000     0.688320000000     0.401630000000     0.0440807  
H475     H      0.304440000000     0.734350000000     0.388830000000     0.037692   
H476     H      0.416350000000     0.647040000000     0.506370000000     0.0450116  
H477     H      0.376570000000     0.602820000000     0.446190000000     0.0379524  
H478     H      0.375450000000     0.639490000000     0.485560000000     0.0374661  
H479     H      0.342220000000     0.706910000000     0.380790000000     0.0401549  
H480     H      0.306120000000     0.696690000000     0.351110000000     0.0429157  
H481     H      0.429320000000     0.619470000000     0.427640000000     0.0389918  
H482     H      0.252650000000     0.646190000000     0.356350000000     0.0628659  
H483     H      0.228880000000     0.673430000000     0.356590000000     0.0754835  
H484     H      0.247400000000     0.667500000000     0.388490000000     0.0721545  
H485     H      0.099000000000     0.957540000000     0.455330000000     0.038767   
H486     H      0.133310000000     0.858160000000     0.421250000000     0.0338585  
H487     H      0.133920000000     0.922990000000     0.356400000000     0.0403633  
H488     H      0.009550000000     0.932820000000     0.478910000000     0.0416287  
H489     H      0.175180000000     0.858700000000     0.403680000000     0.0347098  
H490     H      0.050540000000     0.981080000000     0.414650000000     0.032743   
H491     H      0.051690000000     0.916730000000     0.479840000000     0.033766   
H492     H      0.022310000000     0.011590000000     0.445410000000     0.0450236  
H493     H      0.161040000000     0.890960000000     0.325400000000     0.0247825  
H494     H      0.134830000000     0.934380000000     0.432230000000     0.0416915  
H495     H      0.160400000000     0.826550000000     0.390560000000     0.0439623  
H496     H      0.049930000000     0.905530000000     0.403390000000     0.0444903  
H497     H      0.120860000000     0.850450000000     0.385920000000     0.0368368  
H498     H      0.023690000000     0.947550000000     0.510720000000     0.0445637  
H499     H      0.062630000000     0.989410000000     0.450010000000     0.032492   
H500     H      0.063360000000     0.952490000000     0.487350000000     0.034402   
H501     H      0.085700000000     0.882510000000     0.380200000000     0.0401839  
H502     H      0.121640000000     0.887770000000     0.348560000000     0.0424288  
H503     H      0.008690000000     0.978990000000     0.431750000000     0.041919   
H504     H      0.178690000000     0.932520000000     0.351820000000     0.0627426  
H505     H      0.200450000000     0.903110000000     0.350800000000     0.0780289  
H506     H      0.183550000000     0.910470000000     0.383570000000     0.0709557  
H507     H      0.384910000000     0.908490000000     0.166520000000     0.0405057  
H508     H      0.308790000000     0.907110000000     0.232240000000     0.034116   
H509     H      0.304030000000     0.844870000000     0.165100000000     0.0407793  
H510     H      0.380250000000     0.007720000000     0.119450000000     0.0403819  
H511     H      0.300150000000     0.861830000000     0.255980000000     0.036097   
H512     H      0.371610000000     0.919060000000     0.095430000000     0.0339546  
H513     H      0.372200000000     0.980860000000     0.163140000000     0.0337299  
H514     H      0.407440000000     0.943890000000     0.071890000000     0.0458094  
H515     H      0.266950000000     0.822510000000     0.190070000000     0.0244621  
H516     H      0.358990000000     0.876440000000     0.196070000000     0.0426778  
H517     H      0.273140000000     0.884240000000     0.257730000000     0.0445564  
H518     H      0.319420000000     0.948440000000     0.131300000000     0.0439173  
H519     H      0.281140000000     0.904900000000     0.210520000000     0.0378754  
H520     H      0.408300000000     0.006070000000     0.140140000000     0.0460809  
H521     H      0.398490000000     0.922020000000     0.118370000000     0.0376674  
H522     H      0.398790000000     0.957900000000     0.157800000000     0.0373685  
H523     H      0.293510000000     0.916480000000     0.160920000000     0.0401816  
H524     H      0.278500000000     0.868760000000     0.171820000000     0.0430268  
H525     H      0.379660000000     0.965110000000     0.072800000000     0.038954   
H526     H      0.307800000000     0.799050000000     0.192340000000     0.0618327  
H527     H      0.291530000000     0.794150000000     0.225830000000     0.0772107  
H528     H      0.316260000000     0.820300000000     0.223610000000     0.0721204  
H529     H      0.130850000000     0.663480000000     0.674230000000     0.0406244  
H530     H      0.049270000000     0.600720000000     0.672050000000     0.0336919  
H531     H      0.058880000000     0.659800000000     0.602800000000     0.0402789  
H532     H      0.123770000000     0.720030000000     0.766990000000     0.0364964  
H533     H      0.045240000000     0.572390000000     0.628700000000     0.0328208  
H534     H      0.115870000000     0.737080000000     0.677770000000     0.0337564  
H535     H      0.115940000000     0.673770000000     0.744180000000     0.0337134  
H536     H      0.151060000000     0.762790000000     0.701370000000     0.0459319  
H537     H      0.024450000000     0.635150000000     0.575520000000     0.0259241  
H538     H      0.106430000000     0.631160000000     0.643350000000     0.0418593  
H539     H      0.015290000000     0.575670000000     0.645000000000     0.0450808  
H540     H      0.063760000000     0.703760000000     0.704660000000     0.043799   
H541     H      0.024210000000     0.624370000000     0.661800000000     0.0373295  
H542     H      0.151420000000     0.698560000000     0.768380000000     0.0456491  
H543     H      0.142850000000     0.714530000000     0.682270000000     0.0386498  
H544     H      0.142920000000     0.677170000000     0.721460000000     0.0382782  
H545     H      0.039350000000     0.671820000000     0.673210000000     0.0398367  
H546     H      0.029850000000     0.658230000000     0.621600000000     0.0425829  
H547     H      0.123480000000     0.762050000000     0.723000000000     0.0369575  
H548     H      0.067610000000     0.625610000000     0.562360000000     0.0601199  
H549     H      0.049840000000     0.592780000000     0.559060000000     0.0690909  
H550     H      0.070190000000     0.597650000000     0.589470000000     0.0690409  
H551     H      0.136020000000     0.664010000000     0.919920000000     0.0397759  
H552     H      0.059900000000     0.659910000000     0.987220000000     0.0328651  
H553     H      0.058380000000     0.596380000000     0.921050000000     0.0405938  
H554     H      0.128230000000     0.760290000000     0.867600000000     0.0378226  
H555     H      0.053500000000     0.613860000000     0.010670000000     0.0324328  
H556     H      0.120920000000     0.670780000000     0.848580000000     0.0334305  
H557     H      0.121340000000     0.735900000000     0.913150000000     0.0337275  
H558     H      0.155760000000     0.695250000000     0.822980000000     0.045063   
H559     H      0.022100000000     0.572310000000     0.945800000000     0.0267794  
H560     H      0.111570000000     0.631760000000     0.950930000000     0.0416357  
H561     H      0.025760000000     0.634980000000     0.013380000000     0.0463499  
H562     H      0.068820000000     0.699760000000     0.884630000000     0.0440469  
H563     H      0.032430000000     0.655750000000     0.965450000000     0.0385636  
H564     H      0.156400000000     0.761030000000     0.888130000000     0.0455843  
H565     H      0.148120000000     0.675360000000     0.870720000000     0.0368941  
H566     H      0.148340000000     0.713420000000     0.908550000000     0.0373827  
H567     H      0.044370000000     0.667640000000     0.915760000000     0.0406085  
H568     H      0.031780000000     0.618870000000     0.926870000000     0.0437872  
H569     H      0.127800000000     0.716190000000     0.823960000000     0.036678   
H570     H      0.063580000000     0.551160000000     0.949510000000     0.0602796  
H571     H      0.047290000000     0.546550000000     0.983080000000     0.071357   
H572     H      0.071030000000     0.573850000000     0.980100000000     0.0689584  
H573     H      0.134460000000     0.916260000000     0.661670000000     0.0402164  
H574     H      0.053290000000     0.916920000000     0.599750000000     0.033987   
H575     H      0.059360000000     0.985860000000     0.659830000000     0.0400027  
H576     H      0.127480000000     0.823200000000     0.719720000000     0.0375183  
H577     H      0.046300000000     0.960200000000     0.571770000000     0.0349695  
H578     H      0.123440000000     0.913970000000     0.734790000000     0.0336622  
H579     H      0.118890000000     0.845800000000     0.673730000000     0.0338116  
H580     H      0.159360000000     0.889400000000     0.758950000000     0.0452491  
H581     H      0.023750000000     0.011260000000     0.635570000000     0.0277463  
H582     H      0.108930000000     0.946400000000     0.629690000000     0.0419193  
H583     H      0.017370000000     0.941740000000     0.575760000000     0.0447078  
H584     H      0.068640000000     0.885280000000     0.704230000000     0.0438898  
H585     H      0.027880000000     0.924710000000     0.623750000000     0.0378241  
H586     H      0.154550000000     0.820710000000     0.697470000000     0.0457448  
H587     H      0.149200000000     0.907300000000     0.710950000000     0.0374274  
H588     H      0.146580000000     0.867480000000     0.675410000000     0.0376955  
H589     H      0.043120000000     0.915550000000     0.672330000000     0.0403979  
H590     H      0.031320000000     0.965150000000     0.658010000000     0.0434008  
H591     H      0.130740000000     0.869930000000     0.761600000000     0.038338   
H592     H      0.066910000000     0.026160000000     0.625910000000     0.0602631  
H593     H      0.048080000000     0.030420000000     0.594060000000     0.0693499  
H594     H      0.069300000000     0.000450000000     0.596740000000     0.0703647  
H595     H      0.342160000000     0.705540000000     0.705090000000     0.0396361  
H596     H      0.384990000000     0.609930000000     0.673620000000     0.0343933  
H597     H      0.385710000000     0.675180000000     0.609140000000     0.0406975  
H598     H      0.252670000000     0.675120000000     0.719890000000     0.0388641  
H599     H      0.427570000000     0.614280000000     0.658340000000     0.0364001  
H600     H      0.294460000000     0.725530000000     0.660510000000     0.0330197  
H601     H      0.295300000000     0.660120000000     0.724770000000     0.0339852  
H602     H      0.263370000000     0.753690000000     0.689040000000     0.0447558  
H603     H      0.415640000000     0.645280000000     0.579790000000     0.0248944  
H604     H      0.380670000000     0.685750000000     0.684960000000     0.0424189  
H605     H      0.415410000000     0.580610000000     0.645440000000     0.0452937  
H606     H      0.299800000000     0.650240000000     0.648690000000     0.0439944  
H607     H      0.374700000000     0.601350000000     0.637550000000     0.0379248  
H608     H      0.264240000000     0.687730000000     0.753980000000     0.0450798  
H609     H      0.304750000000     0.734370000000     0.696530000000     0.0345541  
H610     H      0.305260000000     0.696200000000     0.734000000000     0.0368788  
H611     H      0.338260000000     0.630530000000     0.628510000000     0.0402757  
H612     H      0.375320000000     0.639430000000     0.600100000000     0.043157   
H613     H      0.252080000000     0.719510000000     0.676150000000     0.0394125  
H614     H      0.430560000000     0.686990000000     0.607640000000     0.0631298  
H615     H      0.453210000000     0.658490000000     0.608340000000     0.0756233  
H616     H      0.434180000000     0.665090000000     0.639690000000     0.0722337  
H617     H      0.336240000000     0.955930000000     0.954040000000     0.0400787  
H618     H      0.293970000000     0.923520000000     0.857980000000     0.0338265  
H619     H      0.294030000000     0.859700000000     0.923890000000     0.0407151  
H620     H      0.425790000000     0.972220000000     0.925520000000     0.0398068  
H621     H      0.251630000000     0.907290000000     0.862350000000     0.0330195  
H622     H      0.384170000000     0.910910000000     0.973620000000     0.033771   
H623     H      0.383280000000     0.976870000000     0.909930000000     0.0340068  
H624     H      0.414630000000     0.939150000000     0.002900000000     0.04675    
H625     H      0.264730000000     0.829310000000     0.894230000000     0.0247213  
H626     H      0.298040000000     0.935320000000     0.933970000000     0.0420276  
H627     H      0.264120000000     0.894310000000     0.828890000000     0.0435458  
H628     H      0.379440000000     0.900370000000     0.898750000000     0.0441969  
H629     H      0.304860000000     0.887540000000     0.849820000000     0.0375449  
H630     H      0.413690000000     0.005890000000     0.938700000000     0.0464343  
H631     H      0.373350000000     0.946560000000     0.983250000000     0.0370319  
H632     H      0.372810000000     0.985120000000     0.946010000000     0.0371276  
H633     H      0.341290000000     0.879650000000     0.878820000000     0.0401116  
H634     H      0.304730000000     0.850430000000     0.888350000000     0.0430578  
H635     H      0.426390000000     0.927460000000     0.968540000000     0.0398004  
H636     H      0.249090000000     0.857370000000     0.935410000000     0.0626585  
H637     H      0.226620000000     0.857300000000     0.906730000000     0.0747867  
H638     H      0.245130000000     0.889130000000     0.913120000000     0.0705948  
H639     H      0.339000000000     0.630820000000     0.956340000000     0.0402895  
H640     H      0.293700000000     0.724940000000     0.924510000000     0.0341061  
H641     H      0.296900000000     0.660340000000     0.859490000000     0.0407356  
H642     H      0.428220000000     0.660950000000     0.972890000000     0.0391897  
H643     H      0.251680000000     0.718480000000     0.907950000000     0.0361922  
H644     H      0.387220000000     0.613490000000     0.910800000000     0.0342296  
H645     H      0.385500000000     0.675910000000     0.977950000000     0.0337694  
H646     H      0.418260000000     0.584370000000     0.938040000000     0.0459494  
H647     H      0.266540000000     0.689030000000     0.829440000000     0.0244321  
H648     H      0.300360000000     0.649450000000     0.935530000000     0.0423984  
H649     H      0.262810000000     0.752880000000     0.895720000000     0.0448143  
H650     H      0.380850000000     0.688320000000     0.901620000000     0.0440403  
H651     H      0.304440000000     0.734350000000     0.888830000000     0.0376738  
H652     H      0.416350000000     0.647040000000     0.006370000000     0.0460078  
H653     H      0.376570000000     0.602820000000     0.946190000000     0.0378863  
H654     H      0.375450000000     0.639490000000     0.985560000000     0.0371657  
H655     H      0.342220000000     0.706910000000     0.880790000000     0.0401482  
H656     H      0.306120000000     0.696690000000     0.851110000000     0.0429183  
H657     H      0.429320000000     0.619470000000     0.927640000000     0.0390015  
H658     H      0.252650000000     0.646190000000     0.856350000000     0.0628463  
H659     H      0.228880000000     0.673430000000     0.856590000000     0.0754661  
H660     H      0.247400000000     0.667500000000     0.888490000000     0.0721089  
H661     H      0.099000000000     0.957540000000     0.955330000000     0.038674   
H662     H      0.133310000000     0.858160000000     0.921250000000     0.0337776  
H663     H      0.133920000000     0.922990000000     0.856400000000     0.0403614  
H664     H      0.009550000000     0.932820000000     0.978910000000     0.0417154  
H665     H      0.175180000000     0.858700000000     0.903680000000     0.034664   
H666     H      0.050540000000     0.981080000000     0.914650000000     0.0327357  
H667     H      0.051690000000     0.916730000000     0.979840000000     0.0334796  
H668     H      0.022310000000     0.011590000000     0.945410000000     0.0450387  
H669     H      0.161040000000     0.890960000000     0.825400000000     0.0247864  
H670     H      0.134830000000     0.934380000000     0.932230000000     0.0416177  
H671     H      0.160400000000     0.826550000000     0.890560000000     0.0439293  
H672     H      0.049930000000     0.905530000000     0.903390000000     0.0444646  
H673     H      0.120860000000     0.850450000000     0.885920000000     0.0368153  
H674     H      0.023690000000     0.947550000000     0.010720000000     0.0455364  
H675     H      0.062630000000     0.989410000000     0.950010000000     0.0324333  
H676     H      0.063360000000     0.952490000000     0.987350000000     0.0340979  
H677     H      0.085700000000     0.882510000000     0.880200000000     0.0401736  
H678     H      0.121640000000     0.887770000000     0.848560000000     0.0424295  
H679     H      0.008690000000     0.978990000000     0.931750000000     0.0419432  
H680     H      0.178690000000     0.932520000000     0.851820000000     0.0627278  
H681     H      0.200450000000     0.903110000000     0.850800000000     0.0780273  
H682     H      0.183550000000     0.910470000000     0.883570000000     0.0709228  
H683     H      0.384910000000     0.908490000000     0.666520000000     0.0404964  
H684     H      0.308790000000     0.907110000000     0.732240000000     0.0341019  
H685     H      0.304030000000     0.844870000000     0.665100000000     0.0407239  
H686     H      0.380250000000     0.007720000000     0.619460000000     0.0403153  
H687     H      0.300150000000     0.861830000000     0.755980000000     0.0361377  
H688     H      0.371610000000     0.919060000000     0.595430000000     0.033842   
H689     H      0.372200000000     0.980860000000     0.663140000000     0.0337256  
H690     H      0.407440000000     0.943890000000     0.571890000000     0.0457072  
H691     H      0.266950000000     0.822510000000     0.690070000000     0.024437   
H692     H      0.358990000000     0.876440000000     0.696070000000     0.0426668  
H693     H      0.273140000000     0.884240000000     0.757730000000     0.0445921  
H694     H      0.319420000000     0.948440000000     0.631300000000     0.043837   
H695     H      0.281140000000     0.904900000000     0.710520000000     0.0378441  
H696     H      0.408300000000     0.006070000000     0.640150000000     0.0460583  
H697     H      0.398490000000     0.922020000000     0.618360000000     0.0376387  
H698     H      0.398790000000     0.957900000000     0.657800000000     0.0373756  
H699     H      0.293510000000     0.916480000000     0.660920000000     0.0401321  
H700     H      0.278500000000     0.868760000000     0.671820000000     0.0429813  
H701     H      0.379660000000     0.965110000000     0.572800000000     0.0387941  
H702     H      0.307800000000     0.799050000000     0.692340000000     0.0617891  
H703     H      0.291530000000     0.794150000000     0.725840000000     0.0771651  
H704     H      0.316260000000     0.820300000000     0.723610000000     0.0720972  
H705     H      0.630850000000     0.163480000000     0.174240000000     0.0407012  
H706     H      0.549270000000     0.100720000000     0.172050000000     0.0338119  
H707     H      0.558880000000     0.159800000000     0.102800000000     0.0403938  
H708     H      0.623770000000     0.220030000000     0.266990000000     0.0365053  
H709     H      0.545240000000     0.072390000000     0.128700000000     0.0329015  
H710     H      0.615870000000     0.237080000000     0.177770000000     0.0338122  
H711     H      0.615940000000     0.173780000000     0.244180000000     0.033787   
H712     H      0.651060000000     0.262790000000     0.201370000000     0.0459562  
H713     H      0.524450000000     0.135150000000     0.075520000000     0.0260403  
H714     H      0.606430000000     0.131160000000     0.143350000000     0.0419773  
H715     H      0.515290000000     0.075670000000     0.145000000000     0.0452381  
H716     H      0.563760000000     0.203760000000     0.204660000000     0.0438503  
H717     H      0.524210000000     0.124370000000     0.161800000000     0.0374251  
H718     H      0.651420000000     0.198560000000     0.268380000000     0.0456661  
H719     H      0.642850000000     0.214530000000     0.182270000000     0.0386996  
H720     H      0.642920000000     0.177170000000     0.221460000000     0.0383336  
H721     H      0.539350000000     0.171820000000     0.173210000000     0.0399067  
H722     H      0.529850000000     0.158230000000     0.121600000000     0.0426876  
H723     H      0.623480000000     0.262050000000     0.223000000000     0.0369709  
H724     H      0.567610000000     0.125610000000     0.062360000000     0.0603266  
H725     H      0.549840000000     0.092780000000     0.059060000000     0.0693544  
H726     H      0.570190000000     0.097650000000     0.089470000000     0.0692121  
H727     H      0.636020000000     0.164010000000     0.419920000000     0.0398552  
H728     H      0.559900000000     0.159910000000     0.487220000000     0.0333342  
H729     H      0.558380000000     0.096380000000     0.421050000000     0.0407381  
H730     H      0.628230000000     0.260290000000     0.367600000000     0.037851   
H731     H      0.553500000000     0.113860000000     0.510670000000     0.0311864  
H732     H      0.620920000000     0.170780000000     0.348580000000     0.0334919  
H733     H      0.621340000000     0.235900000000     0.413150000000     0.0338163  
H734     H      0.655760000000     0.195250000000     0.322980000000     0.0450729  
H735     H      0.522100000000     0.072310000000     0.445800000000     0.0268482  
H736     H      0.611570000000     0.131760000000     0.450930000000     0.0418138  
H737     H      0.525760000000     0.134980000000     0.513380000000     0.0452483  
H738     H      0.568820000000     0.199760000000     0.384630000000     0.0441011  
H739     H      0.532430000000     0.155750000000     0.465450000000     0.0389067  
H740     H      0.656400000000     0.261030000000     0.388130000000     0.0456211  
H741     H      0.648120000000     0.175360000000     0.370720000000     0.0369489  
H742     H      0.648340000000     0.213420000000     0.408550000000     0.0374643  
H743     H      0.544370000000     0.167640000000     0.415760000000     0.0407001  
H744     H      0.531780000000     0.118870000000     0.426870000000     0.0439099  
H745     H      0.627800000000     0.216190000000     0.323960000000     0.0366816  
H746     H      0.563570000000     0.051160000000     0.449510000000     0.060662   
H747     H      0.547290000000     0.046560000000     0.483080000000     0.0718997  
H748     H      0.571030000000     0.073850000000     0.480100000000     0.0693732  
H749     H      0.634460000000     0.416260000000     0.161670000000     0.0403132  
H750     H      0.553290000000     0.416920000000     0.099750000000     0.034143   
H751     H      0.559360000000     0.485860000000     0.159830000000     0.0404515  
H752     H      0.627480000000     0.323200000000     0.219720000000     0.0374914  
H753     H      0.546300000000     0.460200000000     0.071770000000     0.035245   
H754     H      0.623440000000     0.413970000000     0.234790000000     0.0337376  
H755     H      0.618890000000     0.345800000000     0.173730000000     0.0338772  
H756     H      0.659360000000     0.389400000000     0.258950000000     0.0452994  
H757     H      0.523750000000     0.511260000000     0.135570000000     0.0267163  
H758     H      0.608930000000     0.446390000000     0.129690000000     0.042154   
H759     H      0.517370000000     0.441740000000     0.075760000000     0.0448751  
H760     H      0.568640000000     0.385280000000     0.204220000000     0.0439725  
H761     H      0.527880000000     0.424710000000     0.123750000000     0.0379336  
H762     H      0.654550000000     0.320710000000     0.197470000000     0.0457317  
H763     H      0.649200000000     0.407310000000     0.210950000000     0.0374779  
H764     H      0.646590000000     0.367480000000     0.175410000000     0.0377514  
H765     H      0.543120000000     0.415550000000     0.172330000000     0.0404881  
H766     H      0.531320000000     0.465150000000     0.158010000000     0.0437266  
H767     H      0.630740000000     0.369930000000     0.261600000000     0.0383729  
H768     H      0.566910000000     0.526160000000     0.125910000000     0.0603874  
H769     H      0.548090000000     0.530420000000     0.094060000000     0.0696282  
H770     H      0.569300000000     0.500450000000     0.096740000000     0.0703311  
H771     H      0.842160000000     0.205540000000     0.205090000000     0.0396568  
H772     H      0.884990000000     0.109930000000     0.173620000000     0.0344959  
H773     H      0.885710000000     0.175180000000     0.109140000000     0.0408026  
H774     H      0.752670000000     0.175120000000     0.219890000000     0.0389306  
H775     H      0.927570000000     0.114280000000     0.158340000000     0.0364788  
H776     H      0.794460000000     0.225530000000     0.160510000000     0.0330858  
H777     H      0.795300000000     0.160120000000     0.224770000000     0.034052   
H778     H      0.763370000000     0.253690000000     0.189040000000     0.0447905  
H779     H      0.915640000000     0.145280000000     0.079790000000     0.0249876  
H780     H      0.880670000000     0.185750000000     0.184960000000     0.0424626  
H781     H      0.915410000000     0.080610000000     0.145440000000     0.0453917  
H782     H      0.799800000000     0.150240000000     0.148690000000     0.0441154  
H783     H      0.874700000000     0.101350000000     0.137550000000     0.0380416  
H784     H      0.764250000000     0.187730000000     0.253980000000     0.0451038  
H785     H      0.804750000000     0.234370000000     0.196530000000     0.0345623  
H786     H      0.805260000000     0.196200000000     0.234000000000     0.0368922  
H787     H      0.838260000000     0.130530000000     0.128510000000     0.0404096  
H788     H      0.875320000000     0.139430000000     0.100100000000     0.0432956  
H789     H      0.752080000000     0.219510000000     0.176150000000     0.039488   
H790     H      0.930560000000     0.186990000000     0.107640000000     0.0632712  
H791     H      0.953210000000     0.158490000000     0.108340000000     0.0757572  
H792     H      0.934180000000     0.165090000000     0.139690000000     0.0723196  
H793     H      0.836240000000     0.455930000000     0.454040000000     0.0402848  
H794     H      0.793970000000     0.423520000000     0.357980000000     0.0339179  
H795     H      0.794030000000     0.359700000000     0.423890000000     0.0408071  
H796     H      0.925790000000     0.472220000000     0.425520000000     0.0397289  
H797     H      0.751630000000     0.407290000000     0.362340000000     0.0330778  
H798     H      0.884170000000     0.410910000000     0.473620000000     0.0340937  
H799     H      0.883280000000     0.476870000000     0.409930000000     0.0343196  
H800     H      0.914630000000     0.439150000000     0.502900000000     0.0457779  
H801     H      0.764730000000     0.329310000000     0.394230000000     0.024742   
H802     H      0.798040000000     0.435320000000     0.433970000000     0.0421817  
H803     H      0.764120000000     0.394310000000     0.328890000000     0.0435824  
H804     H      0.879440000000     0.400370000000     0.398750000000     0.0442831  
H805     H      0.804860000000     0.387540000000     0.349820000000     0.0375687  
H806     H      0.913690000000     0.505890000000     0.438700000000     0.0454592  
H807     H      0.873350000000     0.446560000000     0.483250000000     0.0374233  
H808     H      0.872810000000     0.485120000000     0.446010000000     0.037499   
H809     H      0.841290000000     0.379650000000     0.378820000000     0.0401405  
H810     H      0.804730000000     0.350430000000     0.388350000000     0.0430945  
H811     H      0.926390000000     0.427460000000     0.468540000000     0.0397255  
H812     H      0.749090000000     0.357370000000     0.435410000000     0.0628107  
H813     H      0.726620000000     0.357300000000     0.406730000000     0.0749296  
H814     H      0.745130000000     0.389130000000     0.413120000000     0.070724   
H815     H      0.839000000000     0.130830000000     0.456340000000     0.0404933  
H816     H      0.793700000000     0.224940000000     0.424510000000     0.0341814  
H817     H      0.796900000000     0.160340000000     0.359490000000     0.0408016  
H818     H      0.928220000000     0.160950000000     0.472890000000     0.0391308  
H819     H      0.751680000000     0.218480000000     0.407950000000     0.0362633  
H820     H      0.887210000000     0.113490000000     0.410800000000     0.0343401  
H821     H      0.885500000000     0.175910000000     0.477950000000     0.0340711  
H822     H      0.918260000000     0.084370000000     0.438050000000     0.0460772  
H823     H      0.766540000000     0.189030000000     0.329440000000     0.0244495  
H824     H      0.800350000000     0.149450000000     0.435530000000     0.0424899  
H825     H      0.762810000000     0.252880000000     0.395710000000     0.044865   
H826     H      0.880850000000     0.188320000000     0.401630000000     0.0441217  
H827     H      0.804440000000     0.234350000000     0.388830000000     0.0376766  
H828     H      0.916350000000     0.147040000000     0.506370000000     0.0450362  
H829     H      0.876570000000     0.102820000000     0.446190000000     0.0380448  
H830     H      0.875450000000     0.139490000000     0.485560000000     0.0374986  
H831     H      0.842220000000     0.206910000000     0.380790000000     0.0401665  
H832     H      0.806120000000     0.196690000000     0.351110000000     0.0429376  
H833     H      0.929320000000     0.119460000000     0.427640000000     0.0390914  
H834     H      0.752650000000     0.146190000000     0.356350000000     0.0629549  
H835     H      0.728880000000     0.173430000000     0.356590000000     0.0755107  
H836     H      0.747390000000     0.167500000000     0.388490000000     0.0721912  
H837     H      0.599000000000     0.457540000000     0.455330000000     0.038881   
H838     H      0.633310000000     0.358160000000     0.421250000000     0.0338762  
H839     H      0.633920000000     0.422990000000     0.356400000000     0.0404537  
H840     H      0.509550000000     0.432820000000     0.478910000000     0.0417207  
H841     H      0.675180000000     0.358700000000     0.403680000000     0.0347102  
H842     H      0.550540000000     0.481080000000     0.414650000000     0.0330662  
H843     H      0.551690000000     0.416730000000     0.479840000000     0.0338073  
H844     H      0.522310000000     0.511590000000     0.445410000000     0.0441855  
H845     H      0.661040000000     0.390960000000     0.325400000000     0.0247742  
H846     H      0.634830000000     0.434380000000     0.432230000000     0.0417673  
H847     H      0.660400000000     0.326550000000     0.390560000000     0.0439586  
H848     H      0.549930000000     0.405530000000     0.403390000000     0.0445692  
H849     H      0.620860000000     0.350460000000     0.385920000000     0.0368643  
H850     H      0.523690000000     0.447550000000     0.510720000000     0.0446784  
H851     H      0.562630000000     0.489410000000     0.450010000000     0.0328439  
H852     H      0.563360000000     0.452490000000     0.487350000000     0.0345042  
H853     H      0.585700000000     0.382510000000     0.380200000000     0.0402145  
H854     H      0.621640000000     0.387770000000     0.348560000000     0.0424655  
H855     H      0.508690000000     0.478990000000     0.431750000000     0.0419446  
H856     H      0.678700000000     0.432520000000     0.351820000000     0.0629106  
H857     H      0.700440000000     0.403110000000     0.350800000000     0.078165   
H858     H      0.683550000000     0.410470000000     0.383570000000     0.0710605  
H859     H      0.884910000000     0.408490000000     0.166520000000     0.0405646  
H860     H      0.808790000000     0.407110000000     0.232240000000     0.0341909  
H861     H      0.804030000000     0.344870000000     0.165100000000     0.0407946  
H862     H      0.880250000000     0.507720000000     0.119450000000     0.0390578  
H863     H      0.800150000000     0.361830000000     0.255980000000     0.0361083  
H864     H      0.871610000000     0.419060000000     0.095430000000     0.034008   
H865     H      0.872200000000     0.480860000000     0.163140000000     0.0341846  
H866     H      0.907440000000     0.443890000000     0.071890000000     0.0457856  
H867     H      0.766950000000     0.322510000000     0.190070000000     0.0244632  
H868     H      0.858990000000     0.376440000000     0.196070000000     0.0427065  
H869     H      0.773140000000     0.384240000000     0.257730000000     0.0445858  
H870     H      0.819420000000     0.448440000000     0.131300000000     0.0440347  
H871     H      0.781140000000     0.404900000000     0.210520000000     0.0379326  
H872     H      0.908300000000     0.506070000000     0.140140000000     0.0448409  
H873     H      0.898480000000     0.422020000000     0.118370000000     0.037744   
H874     H      0.898790000000     0.457900000000     0.157800000000     0.0376947  
H875     H      0.793510000000     0.416480000000     0.160920000000     0.0402381  
H876     H      0.778500000000     0.368760000000     0.171820000000     0.0430514  
H877     H      0.879660000000     0.465110000000     0.072800000000     0.0390272  
H878     H      0.807800000000     0.299050000000     0.192340000000     0.0618604  
H879     H      0.791530000000     0.294160000000     0.225830000000     0.0772737  
H880     H      0.816260000000     0.320300000000     0.223610000000     0.0721508  
H881     H      0.630850000000     0.163480000000     0.674230000000     0.0406588  
H882     H      0.549270000000     0.100720000000     0.672050000000     0.0338141  
H883     H      0.558880000000     0.159800000000     0.602800000000     0.040304   
H884     H      0.623770000000     0.220030000000     0.766990000000     0.0365077  
H885     H      0.545240000000     0.072390000000     0.628700000000     0.0328902  
H886     H      0.615870000000     0.237080000000     0.677770000000     0.033765   
H887     H      0.615940000000     0.173780000000     0.744180000000     0.0337897  
H888     H      0.651060000000     0.262790000000     0.701370000000     0.0459318  
H889     H      0.524450000000     0.135150000000     0.575520000000     0.0259999  
H890     H      0.606430000000     0.131160000000     0.643350000000     0.0419222  
H891     H      0.515290000000     0.075670000000     0.645000000000     0.0452443  
H892     H      0.563760000000     0.203760000000     0.704660000000     0.0438415  
H893     H      0.524210000000     0.124370000000     0.661800000000     0.0374282  
H894     H      0.651420000000     0.198560000000     0.768380000000     0.045666   
H895     H      0.642850000000     0.214530000000     0.682270000000     0.0386578  
H896     H      0.642920000000     0.177170000000     0.721460000000     0.038325   
H897     H      0.539350000000     0.171820000000     0.673210000000     0.0398985  
H898     H      0.529850000000     0.158230000000     0.621600000000     0.0426481  
H899     H      0.623480000000     0.262050000000     0.723000000000     0.0369666  
H900     H      0.567610000000     0.125610000000     0.562360000000     0.0601647  
H901     H      0.549840000000     0.092780000000     0.559060000000     0.0692032  
H902     H      0.570190000000     0.097650000000     0.589470000000     0.0691155  
H903     H      0.636020000000     0.164010000000     0.919920000000     0.0398095  
H904     H      0.559900000000     0.159910000000     0.987220000000     0.0328837  
H905     H      0.558380000000     0.096380000000     0.921050000000     0.0407192  
H906     H      0.628230000000     0.260290000000     0.867600000000     0.0378247  
H907     H      0.553500000000     0.113860000000     0.010670000000     0.0324793  
H908     H      0.620920000000     0.170780000000     0.848580000000     0.0334885  
H909     H      0.621340000000     0.235900000000     0.913150000000     0.033744   
H910     H      0.655760000000     0.195250000000     0.822980000000     0.0450829  
H911     H      0.522100000000     0.072310000000     0.945800000000     0.0268961  
H912     H      0.611570000000     0.131760000000     0.950930000000     0.0416984  
H913     H      0.525760000000     0.134980000000     0.013380000000     0.0464553  
H914     H      0.568820000000     0.199760000000     0.884630000000     0.0440872  
H915     H      0.532430000000     0.155750000000     0.965450000000     0.0386171  
H916     H      0.656400000000     0.261030000000     0.888130000000     0.0455775  
H917     H      0.648120000000     0.175360000000     0.870720000000     0.0369315  
H918     H      0.648340000000     0.213420000000     0.908550000000     0.0374108  
H919     H      0.544370000000     0.167640000000     0.915760000000     0.0406706  
H920     H      0.531780000000     0.118870000000     0.926870000000     0.0438918  
H921     H      0.627800000000     0.216190000000     0.823960000000     0.0366921  
H922     H      0.563570000000     0.051160000000     0.949510000000     0.0606022  
H923     H      0.547290000000     0.046560000000     0.983080000000     0.0717158  
H924     H      0.571030000000     0.073850000000     0.980100000000     0.0691371  
H925     H      0.634460000000     0.416260000000     0.661670000000     0.0402659  
H926     H      0.553290000000     0.416920000000     0.599750000000     0.0340374  
H927     H      0.559360000000     0.485860000000     0.659830000000     0.0404467  
H928     H      0.627480000000     0.323200000000     0.719720000000     0.0374871  
H929     H      0.546300000000     0.460200000000     0.571770000000     0.0351018  
H930     H      0.623440000000     0.413970000000     0.734790000000     0.0337383  
H931     H      0.618890000000     0.345800000000     0.673730000000     0.033827   
H932     H      0.659360000000     0.389400000000     0.758950000000     0.0452984  
H933     H      0.523750000000     0.511260000000     0.635570000000     0.0267272  
H934     H      0.608930000000     0.446390000000     0.629690000000     0.042074   
H935     H      0.517370000000     0.441740000000     0.575760000000     0.0447889  
H936     H      0.568640000000     0.385280000000     0.704230000000     0.0439421  
H937     H      0.527880000000     0.424710000000     0.623750000000     0.0379051  
H938     H      0.654550000000     0.320710000000     0.697470000000     0.0457042  
H939     H      0.649200000000     0.407310000000     0.710950000000     0.0374632  
H940     H      0.646590000000     0.367480000000     0.675410000000     0.0377034  
H941     H      0.543120000000     0.415550000000     0.672330000000     0.0404859  
H942     H      0.531320000000     0.465150000000     0.658010000000     0.0437287  
H943     H      0.630740000000     0.369930000000     0.761600000000     0.0383755  
H944     H      0.566910000000     0.526160000000     0.625910000000     0.0603456  
H945     H      0.548090000000     0.530420000000     0.594060000000     0.0695385  
H946     H      0.569300000000     0.500450000000     0.596740000000     0.0702183  
H947     H      0.842160000000     0.205540000000     0.705090000000     0.0396541  
H948     H      0.884990000000     0.109930000000     0.673620000000     0.0344956  
H949     H      0.885710000000     0.175180000000     0.609140000000     0.0407132  
H950     H      0.752670000000     0.175120000000     0.719890000000     0.0389125  
H951     H      0.927570000000     0.114280000000     0.658340000000     0.0364883  
H952     H      0.794460000000     0.225530000000     0.660510000000     0.0330211  
H953     H      0.795300000000     0.160120000000     0.724770000000     0.0340492  
H954     H      0.763370000000     0.253690000000     0.689040000000     0.0447629  
H955     H      0.915640000000     0.145280000000     0.579790000000     0.0249028  
H956     H      0.880670000000     0.185750000000     0.684960000000     0.0424557  
H957     H      0.915410000000     0.080610000000     0.645440000000     0.045389   
H958     H      0.799800000000     0.150240000000     0.648690000000     0.0440486  
H959     H      0.874700000000     0.101350000000     0.637550000000     0.0380039  
H960     H      0.764250000000     0.187730000000     0.753980000000     0.0451046  
H961     H      0.804750000000     0.234370000000     0.696530000000     0.034554   
H962     H      0.805260000000     0.196200000000     0.734000000000     0.0368974  
H963     H      0.838260000000     0.130530000000     0.628510000000     0.0403384  
H964     H      0.875320000000     0.139430000000     0.600100000000     0.0431901  
H965     H      0.752080000000     0.219510000000     0.676150000000     0.0394337  
H966     H      0.930560000000     0.186990000000     0.607640000000     0.0631837  
H967     H      0.953210000000     0.158490000000     0.608340000000     0.0757146  
H968     H      0.934180000000     0.165090000000     0.639690000000     0.0723039  
H969     H      0.836240000000     0.455930000000     0.954040000000     0.0401867  
H970     H      0.793970000000     0.423520000000     0.857980000000     0.0339146  
H971     H      0.794030000000     0.359700000000     0.923890000000     0.0407273  
H972     H      0.925790000000     0.472220000000     0.925520000000     0.0397521  
H973     H      0.751630000000     0.407290000000     0.862350000000     0.0330653  
H974     H      0.884170000000     0.410910000000     0.973620000000     0.0338116  
H975     H      0.883280000000     0.476870000000     0.909930000000     0.0343067  
H976     H      0.914630000000     0.439150000000     0.002900000000     0.0467757  
H977     H      0.764730000000     0.329310000000     0.894230000000     0.0247212  
H978     H      0.798040000000     0.435320000000     0.933970000000     0.0421036  
H979     H      0.764120000000     0.394310000000     0.828890000000     0.0435826  
H980     H      0.879440000000     0.400370000000     0.898750000000     0.0442596  
H981     H      0.804860000000     0.387540000000     0.849820000000     0.0375726  
H982     H      0.913690000000     0.505890000000     0.938700000000     0.0454628  
H983     H      0.873350000000     0.446560000000     0.983250000000     0.0371157  
H984     H      0.872810000000     0.485120000000     0.946010000000     0.0374246  
H985     H      0.841290000000     0.379650000000     0.878820000000     0.0401316  
H986     H      0.804730000000     0.350430000000     0.888350000000     0.0430707  
H987     H      0.926390000000     0.427460000000     0.968540000000     0.0398492  
H988     H      0.749090000000     0.357370000000     0.935410000000     0.0626968  
H989     H      0.726620000000     0.357300000000     0.906730000000     0.0748844  
H990     H      0.745130000000     0.389130000000     0.913120000000     0.0706641  
H991     H      0.839000000000     0.130830000000     0.956340000000     0.0403939  
H992     H      0.793700000000     0.224940000000     0.924510000000     0.0340967  
H993     H      0.796900000000     0.160340000000     0.859490000000     0.0407977  
H994     H      0.928220000000     0.160950000000     0.972890000000     0.0392403  
H995     H      0.751680000000     0.218480000000     0.907950000000     0.0361976  
H996     H      0.887210000000     0.113490000000     0.910800000000     0.0343292  
H997     H      0.885500000000     0.175910000000     0.977950000000     0.033784   
H998     H      0.918260000000     0.084370000000     0.938040000000     0.0460673  
H999     H      0.766540000000     0.189030000000     0.829440000000     0.0244544  
H1000    H      0.800350000000     0.149450000000     0.935530000000     0.0424094  
H1001    H      0.762810000000     0.252880000000     0.895720000000     0.0448112  
H1002    H      0.880850000000     0.188320000000     0.901620000000     0.0440812  
H1003    H      0.804440000000     0.234350000000     0.888830000000     0.0376584  
H1004    H      0.916350000000     0.147040000000     0.006370000000     0.0460317  
H1005    H      0.876570000000     0.102820000000     0.946190000000     0.0379785  
H1006    H      0.875450000000     0.139490000000     0.985560000000     0.0371981  
H1007    H      0.842220000000     0.206910000000     0.880790000000     0.0401598  
H1008    H      0.806120000000     0.196690000000     0.851110000000     0.0429401  
H1009    H      0.929320000000     0.119460000000     0.927640000000     0.0391009  
H1010    H      0.752650000000     0.146190000000     0.856350000000     0.0629352  
H1011    H      0.728880000000     0.173430000000     0.856590000000     0.0754933  
H1012    H      0.747390000000     0.167500000000     0.888490000000     0.0721456  
H1013    H      0.599000000000     0.457540000000     0.955330000000     0.0387875  
H1014    H      0.633310000000     0.358160000000     0.921250000000     0.033795   
H1015    H      0.633920000000     0.422990000000     0.856400000000     0.0404516  
H1016    H      0.509550000000     0.432820000000     0.978910000000     0.0418073  
H1017    H      0.675180000000     0.358700000000     0.903680000000     0.0346643  
H1018    H      0.550540000000     0.481080000000     0.914650000000     0.0330582  
H1019    H      0.551690000000     0.416730000000     0.979840000000     0.0335198  
H1020    H      0.522310000000     0.511590000000     0.945410000000     0.0442016  
H1021    H      0.661040000000     0.390960000000     0.825400000000     0.0247781  
H1022    H      0.634830000000     0.434380000000     0.932230000000     0.0416931  
H1023    H      0.660400000000     0.326550000000     0.890560000000     0.0439255  
H1024    H      0.549930000000     0.405530000000     0.903390000000     0.0445433  
H1025    H      0.620860000000     0.350460000000     0.885920000000     0.0368428  
H1026    H      0.523690000000     0.447550000000     0.010720000000     0.0456537  
H1027    H      0.562630000000     0.489410000000     0.950010000000     0.0327843  
H1028    H      0.563360000000     0.452490000000     0.987350000000     0.0341989  
H1029    H      0.585700000000     0.382510000000     0.880200000000     0.0402041  
H1030    H      0.621640000000     0.387770000000     0.848560000000     0.0424661  
H1031    H      0.508690000000     0.478990000000     0.931750000000     0.0419686  
H1032    H      0.678700000000     0.432520000000     0.851820000000     0.0628956  
H1033    H      0.700440000000     0.403110000000     0.850800000000     0.0781633  
H1034    H      0.683550000000     0.410470000000     0.883570000000     0.0710275  
H1035    H      0.884910000000     0.408490000000     0.666520000000     0.0405553  
H1036    H      0.808790000000     0.407110000000     0.732240000000     0.0341767  
H1037    H      0.804030000000     0.344870000000     0.665100000000     0.0407391  
H1038    H      0.880250000000     0.507720000000     0.619460000000     0.0389896  
H1039    H      0.800150000000     0.361830000000     0.755980000000     0.036149   
H1040    H      0.871610000000     0.419060000000     0.595430000000     0.0338954  
H1041    H      0.872200000000     0.480860000000     0.663140000000     0.0341805  
H1042    H      0.907440000000     0.443890000000     0.571890000000     0.0456834  
H1043    H      0.766950000000     0.322510000000     0.690070000000     0.0244381  
H1044    H      0.858990000000     0.376440000000     0.696070000000     0.0426954  
H1045    H      0.773140000000     0.384240000000     0.757730000000     0.0446214  
H1046    H      0.819420000000     0.448440000000     0.631300000000     0.0439543  
H1047    H      0.781140000000     0.404900000000     0.710520000000     0.0379013  
H1048    H      0.908300000000     0.506070000000     0.640150000000     0.0448176  
H1049    H      0.898480000000     0.422020000000     0.618360000000     0.0377154  
H1050    H      0.898790000000     0.457900000000     0.657800000000     0.0377019  
H1051    H      0.793510000000     0.416480000000     0.660920000000     0.0401886  
H1052    H      0.778500000000     0.368760000000     0.671820000000     0.0430059  
H1053    H      0.879660000000     0.465110000000     0.572800000000     0.0388672  
H1054    H      0.807800000000     0.299050000000     0.692340000000     0.0618167  
H1055    H      0.791530000000     0.294160000000     0.725840000000     0.077228   
H1056    H      0.816260000000     0.320300000000     0.723610000000     0.0721276  
H1057    H      0.630850000000     0.663480000000     0.174240000000     0.0406637  
H1058    H      0.549270000000     0.600720000000     0.172050000000     0.0337208  
H1059    H      0.558880000000     0.659800000000     0.102800000000     0.0403909  
H1060    H      0.623770000000     0.720030000000     0.266990000000     0.0365054  
H1061    H      0.545240000000     0.572390000000     0.128700000000     0.0328353  
H1062    H      0.615870000000     0.737080000000     0.177770000000     0.0338137  
H1063    H      0.615940000000     0.673770000000     0.244180000000     0.0337209  
H1064    H      0.651060000000     0.762790000000     0.201370000000     0.045956   
H1065    H      0.524450000000     0.635150000000     0.075520000000     0.0260514  
H1066    H      0.606430000000     0.631160000000     0.143350000000     0.0419121  
H1067    H      0.515290000000     0.575670000000     0.145000000000     0.0451741  
H1068    H      0.563760000000     0.703760000000     0.204660000000     0.0438461  
H1069    H      0.524210000000     0.624370000000     0.161800000000     0.0373985  
H1070    H      0.651420000000     0.698560000000     0.268380000000     0.0456489  
H1071    H      0.642850000000     0.714530000000     0.182270000000     0.0386892  
H1072    H      0.642920000000     0.677170000000     0.221460000000     0.0382845  
H1073    H      0.539350000000     0.671820000000     0.173210000000     0.0398986  
H1074    H      0.529850000000     0.658230000000     0.121600000000     0.0426907  
H1075    H      0.623480000000     0.762050000000     0.223000000000     0.0369733  
H1076    H      0.567610000000     0.625610000000     0.062360000000     0.0602931  
H1077    H      0.549840000000     0.592780000000     0.059060000000     0.0692853  
H1078    H      0.570190000000     0.597650000000     0.089470000000     0.0691408  
H1079    H      0.636020000000     0.664010000000     0.419920000000     0.0398175  
H1080    H      0.559900000000     0.659910000000     0.487220000000     0.0333388  
H1081    H      0.558380000000     0.596380000000     0.421050000000     0.040636   
H1082    H      0.628230000000     0.760290000000     0.367600000000     0.0378547  
H1083    H      0.553500000000     0.613860000000     0.510670000000     0.0311387  
H1084    H      0.620920000000     0.670780000000     0.348580000000     0.033442   
H1085    H      0.621340000000     0.735900000000     0.413150000000     0.0338183  
H1086    H      0.655760000000     0.695250000000     0.322980000000     0.0450511  
H1087    H      0.522100000000     0.572310000000     0.445800000000     0.0268089  
H1088    H      0.611570000000     0.631760000000     0.450930000000     0.0417483  
H1089    H      0.525760000000     0.634980000000     0.513380000000     0.0452295  
H1090    H      0.568820000000     0.699760000000     0.384630000000     0.0440961  
H1091    H      0.532430000000     0.655750000000     0.465450000000     0.0389167  
H1092    H      0.656400000000     0.761030000000     0.388130000000     0.0456228  
H1093    H      0.648120000000     0.675360000000     0.370720000000     0.0369083  
H1094    H      0.648340000000     0.713420000000     0.408550000000     0.037455   
H1095    H      0.544370000000     0.667640000000     0.415760000000     0.0406869  
H1096    H      0.531780000000     0.618870000000     0.426870000000     0.0438687  
H1097    H      0.627800000000     0.716190000000     0.323960000000     0.0366774  
H1098    H      0.563570000000     0.551160000000     0.449510000000     0.06039    
H1099    H      0.547290000000     0.546550000000     0.483080000000     0.0716109  
H1100    H      0.571030000000     0.573850000000     0.480100000000     0.0692178  
H1101    H      0.634460000000     0.916260000000     0.161670000000     0.0402608  
H1102    H      0.553290000000     0.916920000000     0.099750000000     0.0341199  
H1103    H      0.559360000000     0.985860000000     0.159830000000     0.0400286  
H1104    H      0.627480000000     0.823200000000     0.219720000000     0.0375361  
H1105    H      0.546300000000     0.960200000000     0.071770000000     0.0351252  
H1106    H      0.623440000000     0.913970000000     0.234790000000     0.0336686  
H1107    H      0.618890000000     0.845800000000     0.173730000000     0.0338634  
H1108    H      0.659360000000     0.889400000000     0.258950000000     0.0452493  
H1109    H      0.523750000000     0.011260000000     0.135570000000     0.0278129  
H1110    H      0.608930000000     0.946400000000     0.129690000000     0.0419967  
H1111    H      0.517370000000     0.941740000000     0.075760000000     0.0448846  
H1112    H      0.568640000000     0.885280000000     0.204220000000     0.0439547  
H1113    H      0.527880000000     0.924710000000     0.123750000000     0.037915   
H1114    H      0.654550000000     0.820710000000     0.197470000000     0.045774   
H1115    H      0.649200000000     0.907300000000     0.210950000000     0.0374378  
H1116    H      0.646590000000     0.867480000000     0.175410000000     0.0377202  
H1117    H      0.543120000000     0.915550000000     0.172330000000     0.0404471  
H1118    H      0.531320000000     0.965150000000     0.158010000000     0.0434586  
H1119    H      0.630740000000     0.869930000000     0.261600000000     0.038346   
H1120    H      0.566910000000     0.026160000000     0.125910000000     0.0603226  
H1121    H      0.548090000000     0.030420000000     0.094060000000     0.0695084  
H1122    H      0.569300000000     0.000450000000     0.096740000000     0.0704928  
H1123    H      0.842160000000     0.705540000000     0.205090000000     0.0396526  
H1124    H      0.884990000000     0.609930000000     0.173620000000     0.0344121  
H1125    H      0.885710000000     0.675180000000     0.109140000000     0.0408018  
H1126    H      0.752670000000     0.675120000000     0.219890000000     0.0388797  
H1127    H      0.927570000000     0.614280000000     0.158340000000     0.036445   
H1128    H      0.794460000000     0.725530000000     0.160510000000     0.0330837  
H1129    H      0.795300000000     0.660120000000     0.224770000000     0.0339898  
H1130    H      0.763370000000     0.753690000000     0.189040000000     0.0447895  
H1131    H      0.915640000000     0.645280000000     0.079790000000     0.0249864  
H1132    H      0.880670000000     0.685750000000     0.184960000000     0.0424534  
H1133    H      0.915410000000     0.580610000000     0.145440000000     0.0453219  
H1134    H      0.799800000000     0.650240000000     0.148690000000     0.0440552  
H1135    H      0.874700000000     0.601350000000     0.137550000000     0.0379617  
H1136    H      0.764250000000     0.687730000000     0.253980000000     0.0450733  
H1137    H      0.804750000000     0.734370000000     0.196530000000     0.0345664  
H1138    H      0.805260000000     0.696200000000     0.234000000000     0.0368799  
H1139    H      0.838260000000     0.630530000000     0.128510000000     0.0403491  
H1140    H      0.875320000000     0.639430000000     0.100100000000     0.0432638  
H1141    H      0.752080000000     0.719510000000     0.176150000000     0.0394706  
H1142    H      0.930560000000     0.686990000000     0.107640000000     0.0632772  
H1143    H      0.953210000000     0.658490000000     0.108340000000     0.0757625  
H1144    H      0.934180000000     0.665090000000     0.139690000000     0.0723132  
H1145    H      0.836240000000     0.955930000000     0.454040000000     0.0401861  
H1146    H      0.793970000000     0.923520000000     0.357980000000     0.0338306  
H1147    H      0.794030000000     0.859700000000     0.423890000000     0.0407934  
H1148    H      0.925790000000     0.972220000000     0.425520000000     0.0398435  
H1149    H      0.751630000000     0.907290000000     0.362340000000     0.0330268  
H1150    H      0.884170000000     0.910910000000     0.473620000000     0.0340816  
H1151    H      0.883280000000     0.976870000000     0.409930000000     0.0340351  
H1152    H      0.914630000000     0.939150000000     0.502900000000     0.0457855  
H1153    H      0.764730000000     0.829310000000     0.394230000000     0.0247477  
H1154    H      0.798040000000     0.935320000000     0.433970000000     0.0420995  
H1155    H      0.764120000000     0.894310000000     0.328890000000     0.0435442  
H1156    H      0.879440000000     0.900370000000     0.398750000000     0.044258   
H1157    H      0.804860000000     0.887540000000     0.349820000000     0.037547   
H1158    H      0.913690000000     0.005890000000     0.438700000000     0.0464568  
H1159    H      0.873350000000     0.946560000000     0.483250000000     0.0373542  
H1160    H      0.872810000000     0.985120000000     0.446010000000     0.0371992  
H1161    H      0.841290000000     0.879650000000     0.378820000000     0.0401308  
H1162    H      0.804730000000     0.850430000000     0.388350000000     0.0430875  
H1163    H      0.926390000000     0.927460000000     0.468540000000     0.0397452  
H1164    H      0.749090000000     0.857370000000     0.435410000000     0.0627791  
H1165    H      0.726620000000     0.857300000000     0.406730000000     0.0749065  
H1166    H      0.745130000000     0.889130000000     0.413120000000     0.0706727  
H1167    H      0.839000000000     0.630820000000     0.456340000000     0.0403958  
H1168    H      0.793700000000     0.724940000000     0.424510000000     0.0341792  
H1169    H      0.796900000000     0.660340000000     0.359490000000     0.0407423  
H1170    H      0.928220000000     0.660950000000     0.472890000000     0.039138   
H1171    H      0.751680000000     0.718480000000     0.407950000000     0.0362529  
H1172    H      0.887210000000     0.613490000000     0.410800000000     0.0342545  
H1173    H      0.885500000000     0.675910000000     0.477950000000     0.0340716  
H1174    H      0.918260000000     0.584370000000     0.438050000000     0.0459881  
H1175    H      0.766540000000     0.689030000000     0.329440000000     0.0244359  
H1176    H      0.800350000000     0.649450000000     0.435530000000     0.0424356  
H1177    H      0.762810000000     0.752880000000     0.395710000000     0.0448669  
H1178    H      0.880850000000     0.688320000000     0.401630000000     0.0441165  
H1179    H      0.804440000000     0.734350000000     0.388830000000     0.0376807  
H1180    H      0.916350000000     0.647040000000     0.506370000000     0.0450332  
H1181    H      0.876570000000     0.602820000000     0.446190000000     0.037947   
H1182    H      0.875450000000     0.639490000000     0.485560000000     0.0374628  
H1183    H      0.842220000000     0.706910000000     0.380790000000     0.0401637  
H1184    H      0.806120000000     0.696690000000     0.351110000000     0.0429227  
H1185    H      0.929320000000     0.619470000000     0.427640000000     0.0390553  
H1186    H      0.752650000000     0.646190000000     0.356350000000     0.0628603  
H1187    H      0.728880000000     0.673430000000     0.356590000000     0.0754674  
H1188    H      0.747390000000     0.667500000000     0.388490000000     0.0721393  
H1189    H      0.599000000000     0.957540000000     0.455330000000     0.0387673  
H1190    H      0.633310000000     0.858160000000     0.421250000000     0.0338641  
H1191    H      0.633920000000     0.922990000000     0.356400000000     0.0403719  
H1192    H      0.509550000000     0.932820000000     0.478910000000     0.0417475  
H1193    H      0.675180000000     0.858700000000     0.403680000000     0.0347029  
H1194    H      0.550540000000     0.981080000000     0.414650000000     0.0327665  
H1195    H      0.551690000000     0.916730000000     0.479840000000     0.0337903  
H1196    H      0.522310000000     0.011590000000     0.445410000000     0.045128   
H1197    H      0.661040000000     0.890960000000     0.325400000000     0.0247545  
H1198    H      0.634830000000     0.934380000000     0.432230000000     0.0416867  
H1199    H      0.660400000000     0.826550000000     0.390560000000     0.043962   
H1200    H      0.549930000000     0.905530000000     0.403390000000     0.044541   
H1201    H      0.620860000000     0.850450000000     0.385920000000     0.0368485  
H1202    H      0.523690000000     0.947550000000     0.510720000000     0.0446679  
H1203    H      0.562630000000     0.989410000000     0.450010000000     0.0324936  
H1204    H      0.563360000000     0.952490000000     0.487350000000     0.0344072  
H1205    H      0.585700000000     0.882510000000     0.380200000000     0.0402047  
H1206    H      0.621640000000     0.887770000000     0.348560000000     0.0424412  
H1207    H      0.508690000000     0.978990000000     0.431750000000     0.0420394  
H1208    H      0.678700000000     0.932520000000     0.351820000000     0.0627977  
H1209    H      0.700440000000     0.903110000000     0.350800000000     0.0781206  
H1210    H      0.683550000000     0.910470000000     0.383570000000     0.0710036  
H1211    H      0.884910000000     0.908490000000     0.166520000000     0.0405383  
H1212    H      0.808790000000     0.907110000000     0.232240000000     0.0341206  
H1213    H      0.804030000000     0.844870000000     0.165100000000     0.0407819  
H1214    H      0.880250000000     0.007720000000     0.119450000000     0.0403796  
H1215    H      0.800150000000     0.861830000000     0.255980000000     0.0361038  
H1216    H      0.871610000000     0.919060000000     0.095430000000     0.0339733  
H1217    H      0.872200000000     0.980860000000     0.163140000000     0.0337418  
H1218    H      0.907440000000     0.943890000000     0.071890000000     0.0458291  
H1219    H      0.766950000000     0.822510000000     0.190070000000     0.0244606  
H1220    H      0.858990000000     0.876440000000     0.196070000000     0.0426934  
H1221    H      0.773140000000     0.884240000000     0.257730000000     0.0445541  
H1222    H      0.819420000000     0.948440000000     0.131300000000     0.0439105  
H1223    H      0.781140000000     0.904900000000     0.210520000000     0.0378705  
H1224    H      0.908300000000     0.006070000000     0.140140000000     0.0461072  
H1225    H      0.898480000000     0.922020000000     0.118370000000     0.0377223  
H1226    H      0.898790000000     0.957900000000     0.157800000000     0.0374041  
H1227    H      0.793510000000     0.916480000000     0.160920000000     0.0401812  
H1228    H      0.778500000000     0.868760000000     0.171820000000     0.0430222  
H1229    H      0.879660000000     0.965110000000     0.072800000000     0.0389481  
H1230    H      0.807800000000     0.799050000000     0.192340000000     0.0618404  
H1231    H      0.791530000000     0.794150000000     0.225830000000     0.0772237  
H1232    H      0.816260000000     0.820300000000     0.223610000000     0.0721335  
H1233    H      0.630850000000     0.663480000000     0.674230000000     0.0406212  
H1234    H      0.549270000000     0.600720000000     0.672050000000     0.0337229  
H1235    H      0.558880000000     0.659800000000     0.602800000000     0.0403011  
H1236    H      0.623770000000     0.720030000000     0.766990000000     0.0365077  
H1237    H      0.545240000000     0.572390000000     0.628700000000     0.0328239  
H1238    H      0.615870000000     0.737080000000     0.677770000000     0.0337665  
H1239    H      0.615940000000     0.673770000000     0.744180000000     0.0337236  
H1240    H      0.651060000000     0.762790000000     0.701370000000     0.0459316  
H1241    H      0.524450000000     0.635150000000     0.575520000000     0.026011   
H1242    H      0.606430000000     0.631160000000     0.643350000000     0.0418568  
H1243    H      0.515290000000     0.575670000000     0.645000000000     0.0451802  
H1244    H      0.563760000000     0.703760000000     0.704660000000     0.0438373  
H1245    H      0.524210000000     0.624370000000     0.661800000000     0.0374016  
H1246    H      0.651420000000     0.698560000000     0.768380000000     0.0456488  
H1247    H      0.642850000000     0.714530000000     0.682270000000     0.0386474  
H1248    H      0.642920000000     0.677170000000     0.721460000000     0.0382759  
H1249    H      0.539350000000     0.671820000000     0.673210000000     0.0398903  
H1250    H      0.529850000000     0.658230000000     0.621600000000     0.0426512  
H1251    H      0.623480000000     0.762050000000     0.723000000000     0.036969   
H1252    H      0.567610000000     0.625610000000     0.562360000000     0.0601309  
H1253    H      0.549840000000     0.592780000000     0.559060000000     0.0691337  
H1254    H      0.570190000000     0.597650000000     0.589470000000     0.069044   
H1255    H      0.636020000000     0.664010000000     0.919920000000     0.0397719  
H1256    H      0.559900000000     0.659910000000     0.987220000000     0.0328882  
H1257    H      0.558380000000     0.596380000000     0.921050000000     0.0406171  
H1258    H      0.628230000000     0.760290000000     0.867600000000     0.0378284  
H1259    H      0.553500000000     0.613860000000     0.010670000000     0.0324332  
H1260    H      0.620920000000     0.670780000000     0.848580000000     0.0334387  
H1261    H      0.621340000000     0.735900000000     0.913150000000     0.033746   
H1262    H      0.655760000000     0.695250000000     0.822980000000     0.0450611  
H1263    H      0.522100000000     0.572310000000     0.945800000000     0.0268569  
H1264    H      0.611570000000     0.631760000000     0.950930000000     0.0416329  
H1265    H      0.525760000000     0.634980000000     0.013380000000     0.0464371  
H1266    H      0.568820000000     0.699760000000     0.884630000000     0.0440822  
H1267    H      0.532430000000     0.655750000000     0.965450000000     0.038627   
H1268    H      0.656400000000     0.761030000000     0.888130000000     0.0455792  
H1269    H      0.648120000000     0.675360000000     0.870720000000     0.0368909  
H1270    H      0.648340000000     0.713420000000     0.908550000000     0.0374015  
H1271    H      0.544370000000     0.667640000000     0.915760000000     0.0406575  
H1272    H      0.531780000000     0.618870000000     0.926870000000     0.0438506  
H1273    H      0.627800000000     0.716190000000     0.823960000000     0.0366879  
H1274    H      0.563570000000     0.551160000000     0.949510000000     0.0603305  
H1275    H      0.547290000000     0.546550000000     0.983080000000     0.0714272  
H1276    H      0.571030000000     0.573850000000     0.980100000000     0.0689817  
H1277    H      0.634460000000     0.916260000000     0.661670000000     0.0402134  
H1278    H      0.553290000000     0.916920000000     0.599750000000     0.0340144  
H1279    H      0.559360000000     0.985860000000     0.659830000000     0.0400236  
H1280    H      0.627480000000     0.823200000000     0.719720000000     0.0375319  
H1281    H      0.546300000000     0.960200000000     0.571770000000     0.0349821  
H1282    H      0.623440000000     0.913970000000     0.734790000000     0.0336693  
H1283    H      0.618890000000     0.845800000000     0.673730000000     0.0338132  
H1284    H      0.659360000000     0.889400000000     0.758950000000     0.0452483  
H1285    H      0.523750000000     0.011260000000     0.635570000000     0.0278248  
H1286    H      0.608930000000     0.946400000000     0.629690000000     0.0419168  
H1287    H      0.517370000000     0.941740000000     0.575760000000     0.0447985  
H1288    H      0.568640000000     0.885280000000     0.704230000000     0.0439243  
H1289    H      0.527880000000     0.924710000000     0.623750000000     0.0378864  
H1290    H      0.654550000000     0.820710000000     0.697470000000     0.0457465  
H1291    H      0.649200000000     0.907300000000     0.710950000000     0.0374232  
H1292    H      0.646590000000     0.867480000000     0.675410000000     0.0376722  
H1293    H      0.543120000000     0.915550000000     0.672330000000     0.0404449  
H1294    H      0.531320000000     0.965150000000     0.658010000000     0.0434605  
H1295    H      0.630740000000     0.869930000000     0.761600000000     0.0383486  
H1296    H      0.566910000000     0.026160000000     0.625910000000     0.0602808  
H1297    H      0.548090000000     0.030420000000     0.594060000000     0.0694189  
H1298    H      0.569300000000     0.000450000000     0.596740000000     0.0703807  
H1299    H      0.842160000000     0.705540000000     0.705090000000     0.03965    
H1300    H      0.884990000000     0.609930000000     0.673620000000     0.0344118  
H1301    H      0.885710000000     0.675180000000     0.609140000000     0.0407123  
H1302    H      0.752670000000     0.675120000000     0.719890000000     0.0388615  
H1303    H      0.927570000000     0.614280000000     0.658340000000     0.0364545  
H1304    H      0.794460000000     0.725530000000     0.660510000000     0.033019   
H1305    H      0.795300000000     0.660120000000     0.724770000000     0.0339869  
H1306    H      0.763370000000     0.753690000000     0.689040000000     0.0447619  
H1307    H      0.915640000000     0.645280000000     0.579790000000     0.0249015  
H1308    H      0.880670000000     0.685750000000     0.684960000000     0.0424465  
H1309    H      0.915410000000     0.580610000000     0.645440000000     0.0453192  
H1310    H      0.799800000000     0.650240000000     0.648690000000     0.0439883  
H1311    H      0.874700000000     0.601350000000     0.637550000000     0.0379238  
H1312    H      0.764250000000     0.687730000000     0.753980000000     0.045074   
H1313    H      0.804750000000     0.734370000000     0.696530000000     0.0345582  
H1314    H      0.805260000000     0.696200000000     0.734000000000     0.0368851  
H1315    H      0.838260000000     0.630530000000     0.628510000000     0.0402778  
H1316    H      0.875320000000     0.639430000000     0.600100000000     0.0431581  
H1317    H      0.752080000000     0.719510000000     0.676150000000     0.0394162  
H1318    H      0.930560000000     0.686990000000     0.607640000000     0.0631897  
H1319    H      0.953210000000     0.658490000000     0.608340000000     0.0757198  
H1320    H      0.934180000000     0.665090000000     0.639690000000     0.0722975  
H1321    H      0.836240000000     0.955930000000     0.954040000000     0.0400885  
H1322    H      0.793970000000     0.923520000000     0.857980000000     0.0338275  
H1323    H      0.794030000000     0.859700000000     0.923890000000     0.0407138  
H1324    H      0.925790000000     0.972220000000     0.925520000000     0.0398664  
H1325    H      0.751630000000     0.907290000000     0.862350000000     0.0330145  
H1326    H      0.884170000000     0.910910000000     0.973620000000     0.0338     
H1327    H      0.883280000000     0.976870000000     0.909930000000     0.0340227  
H1328    H      0.914630000000     0.939150000000     0.002900000000     0.0467819  
H1329    H      0.764730000000     0.829310000000     0.894230000000     0.024727   
H1330    H      0.798040000000     0.935320000000     0.933970000000     0.0420217  
H1331    H      0.764120000000     0.894310000000     0.828890000000     0.0435444  
H1332    H      0.879440000000     0.900370000000     0.898750000000     0.0442346  
H1333    H      0.804860000000     0.887540000000     0.849820000000     0.037551   
H1334    H      0.913690000000     0.005890000000     0.938700000000     0.0464589  
H1335    H      0.873350000000     0.946560000000     0.983250000000     0.0370474  
H1336    H      0.872810000000     0.985120000000     0.946010000000     0.0371256  
H1337    H      0.841290000000     0.879650000000     0.878820000000     0.0401219  
H1338    H      0.804730000000     0.850430000000     0.888350000000     0.0430637  
H1339    H      0.926390000000     0.927460000000     0.968540000000     0.0398687  
H1340    H      0.749090000000     0.857370000000     0.935410000000     0.0626655  
H1341    H      0.726620000000     0.857300000000     0.906730000000     0.0748614  
H1342    H      0.745130000000     0.889130000000     0.913120000000     0.070613   
H1343    H      0.839000000000     0.630820000000     0.956340000000     0.0402965  
H1344    H      0.793700000000     0.724940000000     0.924510000000     0.0340946  
H1345    H      0.796900000000     0.660340000000     0.859490000000     0.0407383  
H1346    H      0.928220000000     0.660950000000     0.972890000000     0.0392477  
H1347    H      0.751680000000     0.718480000000     0.907950000000     0.0361873  
H1348    H      0.887210000000     0.613490000000     0.910800000000     0.0342437  
H1349    H      0.885500000000     0.675910000000     0.977950000000     0.0337845  
H1350    H      0.918260000000     0.584370000000     0.938040000000     0.0459783  
H1351    H      0.766540000000     0.689030000000     0.829440000000     0.0244408  
H1352    H      0.800350000000     0.649450000000     0.935530000000     0.0423552  
H1353    H      0.762810000000     0.752880000000     0.895720000000     0.0448132  
H1354    H      0.880850000000     0.688320000000     0.901620000000     0.044076   
H1355    H      0.804440000000     0.734350000000     0.888830000000     0.0376625  
H1356    H      0.916350000000     0.647040000000     0.006370000000     0.0460296  
H1357    H      0.876570000000     0.602820000000     0.946190000000     0.0378808  
H1358    H      0.875450000000     0.639490000000     0.985560000000     0.0371622  
H1359    H      0.842220000000     0.706910000000     0.880790000000     0.040157   
H1360    H      0.806120000000     0.696690000000     0.851110000000     0.0429252  
H1361    H      0.929320000000     0.619470000000     0.927640000000     0.0390649  
H1362    H      0.752650000000     0.646190000000     0.856350000000     0.0628407  
H1363    H      0.728880000000     0.673430000000     0.856590000000     0.07545    
H1364    H      0.747390000000     0.667500000000     0.888490000000     0.0720937  
H1365    H      0.599000000000     0.957540000000     0.955330000000     0.0386742  
H1366    H      0.633310000000     0.858160000000     0.921250000000     0.0337831  
H1367    H      0.633920000000     0.922990000000     0.856400000000     0.04037    
H1368    H      0.509550000000     0.932820000000     0.978910000000     0.0418339  
H1369    H      0.675180000000     0.858700000000     0.903680000000     0.0346572  
H1370    H      0.550540000000     0.981080000000     0.914650000000     0.0327591  
H1371    H      0.551690000000     0.916730000000     0.979840000000     0.0335034  
H1372    H      0.522310000000     0.011590000000     0.945410000000     0.0451427  
H1373    H      0.661040000000     0.890960000000     0.825400000000     0.0247584  
H1374    H      0.634830000000     0.934380000000     0.932230000000     0.0416128  
H1375    H      0.660400000000     0.826550000000     0.890560000000     0.0439289  
H1376    H      0.549930000000     0.905530000000     0.903390000000     0.0445152  
H1377    H      0.620860000000     0.850450000000     0.885920000000     0.036827   
H1378    H      0.523690000000     0.947550000000     0.010720000000     0.0456418  
H1379    H      0.562630000000     0.989410000000     0.950010000000     0.0324348  
H1380    H      0.563360000000     0.952490000000     0.987350000000     0.0341027  
H1381    H      0.585700000000     0.882510000000     0.880200000000     0.0401944  
H1382    H      0.621640000000     0.887770000000     0.848560000000     0.0424419  
H1383    H      0.508690000000     0.978990000000     0.931750000000     0.0420631  
H1384    H      0.678700000000     0.932520000000     0.851820000000     0.0627829  
H1385    H      0.700440000000     0.903110000000     0.850800000000     0.078119   
H1386    H      0.683550000000     0.910470000000     0.883570000000     0.0709707  
H1387    H      0.884910000000     0.908490000000     0.666520000000     0.0405289  
H1388    H      0.808790000000     0.907110000000     0.732240000000     0.0341065  
H1389    H      0.804030000000     0.844870000000     0.665100000000     0.0407265  
H1390    H      0.880250000000     0.007720000000     0.619460000000     0.040313   
H1391    H      0.800150000000     0.861830000000     0.755980000000     0.0361445  
H1392    H      0.871610000000     0.919060000000     0.595430000000     0.0338608  
H1393    H      0.872200000000     0.980860000000     0.663140000000     0.0337374  
H1394    H      0.907440000000     0.943890000000     0.571890000000     0.0457269  
H1395    H      0.766950000000     0.822510000000     0.690070000000     0.0244356  
H1396    H      0.858990000000     0.876440000000     0.696070000000     0.0426823  
H1397    H      0.773140000000     0.884240000000     0.757730000000     0.0445897  
H1398    H      0.819420000000     0.948440000000     0.631300000000     0.0438302  
H1399    H      0.781140000000     0.904900000000     0.710520000000     0.0378393  
H1400    H      0.908300000000     0.006070000000     0.640150000000     0.0460846  
H1401    H      0.898480000000     0.922020000000     0.618360000000     0.0376937  
H1402    H      0.898790000000     0.957900000000     0.657800000000     0.0374112  
H1403    H      0.793510000000     0.916480000000     0.660920000000     0.0401317  
H1404    H      0.778500000000     0.868760000000     0.671820000000     0.0429767  
H1405    H      0.879660000000     0.965110000000     0.572800000000     0.0387882  
H1406    H      0.807800000000     0.799050000000     0.692340000000     0.0617967  
H1407    H      0.791530000000     0.794150000000     0.725840000000     0.0771781  
H1408    H      0.816260000000     0.820300000000     0.723610000000     0.0721103  
N1       N      0.021040000000     0.100030000000     0.105750000000    -0.174728   
N2       N      0.057660000000     0.129560000000     0.137550000000    -0.111061   
N3       N      0.112650000000     0.205110000000     0.210680000000    -0.11418    
N4       N      0.151740000000     0.234490000000     0.238530000000    -0.162694   
N5       N      0.024560000000     0.098600000000     0.484000000000    -0.174974   
N6       N      0.062640000000     0.127950000000     0.454260000000    -0.110968   
N7       N      0.117740000000     0.203270000000     0.380980000000    -0.114191   
N8       N      0.155910000000     0.232400000000     0.351280000000    -0.163554   
N9       N      0.021400000000     0.481150000000     0.100260000000    -0.173902   
N10      N      0.059920000000     0.451350000000     0.129280000000    -0.110702   
N11      N      0.117670000000     0.380060000000     0.204410000000    -0.113941   
N12      N      0.156550000000     0.350700000000     0.233150000000    -0.162511   
N13      N      0.421430000000     0.113660000000     0.113160000000    -0.175875   
N14      N      0.385460000000     0.145430000000     0.144330000000    -0.110576   
N15      N      0.294980000000     0.189990000000     0.189770000000    -0.114119   
N16      N      0.258470000000     0.220330000000     0.221220000000    -0.164552   
N17      N      0.258600000000     0.362210000000     0.362210000000    -0.176722   
N18      N      0.293880000000     0.394550000000     0.393740000000    -0.110682   
N19      N      0.383630000000     0.441130000000     0.438910000000    -0.113973   
N20      N      0.419350000000     0.472410000000     0.470580000000    -0.164268   
N21      N      0.258720000000     0.219860000000     0.362960000000    -0.176386   
N22      N      0.295190000000     0.189720000000     0.394940000000    -0.110585   
N23      N      0.386040000000     0.147580000000     0.441710000000    -0.114057   
N24      N      0.422180000000     0.115760000000     0.472400000000    -0.164635   
N25      N      0.167470000000     0.359710000000     0.358850000000    -0.175541   
N26      N      0.134480000000     0.393550000000     0.391850000000    -0.110674   
N27      N      0.050230000000     0.445810000000     0.444230000000    -0.113836   
N28      N      0.015870000000     0.477910000000     0.476660000000    -0.163696   
N29      N      0.271130000000     0.347680000000     0.228720000000    -0.177042   
N30      N      0.309980000000     0.375350000000     0.198960000000    -0.110587   
N31      N      0.368430000000     0.450210000000     0.129110000000    -0.114064   
N32      N      0.407290000000     0.479950000000     0.101560000000    -0.165358   
N33      N      0.021040000000     0.100030000000     0.605750000000    -0.174722   
N34      N      0.057660000000     0.129560000000     0.637550000000    -0.111072   
N35      N      0.112650000000     0.205110000000     0.710680000000    -0.114179   
N36      N      0.151740000000     0.234490000000     0.738530000000    -0.162695   
N37      N      0.024560000000     0.098600000000     0.984000000000    -0.174567   
N38      N      0.062640000000     0.127950000000     0.954260000000    -0.111109   
N39      N      0.117740000000     0.203270000000     0.880980000000    -0.114201   
N40      N      0.155910000000     0.232400000000     0.851290000000    -0.163519   
N41      N      0.021400000000     0.481150000000     0.600260000000    -0.17391    
N42      N      0.059920000000     0.451350000000     0.629280000000    -0.11072    
N43      N      0.117670000000     0.380060000000     0.704410000000    -0.113941   
N44      N      0.156550000000     0.350700000000     0.733150000000    -0.162514   
N45      N      0.421430000000     0.113660000000     0.613160000000    -0.175879   
N46      N      0.385460000000     0.145430000000     0.644330000000    -0.110583   
N47      N      0.294980000000     0.189990000000     0.689770000000    -0.11413    
N48      N      0.258470000000     0.220330000000     0.721220000000    -0.164555   
N49      N      0.258600000000     0.362210000000     0.862210000000    -0.17672    
N50      N      0.293880000000     0.394550000000     0.893740000000    -0.110694   
N51      N      0.383630000000     0.441130000000     0.938910000000    -0.114026   
N52      N      0.419350000000     0.472410000000     0.970580000000    -0.163994   
N53      N      0.258720000000     0.219860000000     0.862960000000    -0.176388   
N54      N      0.295190000000     0.189720000000     0.894940000000    -0.110598   
N55      N      0.386040000000     0.147580000000     0.941710000000    -0.114108   
N56      N      0.422180000000     0.115760000000     0.972400000000    -0.164364   
N57      N      0.167470000000     0.359710000000     0.858850000000    -0.175541   
N58      N      0.134480000000     0.393550000000     0.891850000000    -0.110685   
N59      N      0.050230000000     0.445810000000     0.944230000000    -0.11389    
N60      N      0.015870000000     0.477910000000     0.976660000000    -0.163426   
N61      N      0.271130000000     0.347680000000     0.728720000000    -0.17702    
N62      N      0.309980000000     0.375350000000     0.698970000000    -0.110584   
N63      N      0.368430000000     0.450210000000     0.629110000000    -0.114078   
N64      N      0.407290000000     0.479950000000     0.601560000000    -0.165378   
N65      N      0.021040000000     0.600030000000     0.105750000000    -0.174723   
N66      N      0.057660000000     0.629560000000     0.137550000000    -0.111074   
N67      N      0.112650000000     0.705110000000     0.210680000000    -0.114187   
N68      N      0.151740000000     0.734490000000     0.238530000000    -0.162689   
N69      N      0.024560000000     0.598600000000     0.484000000000    -0.174972   
N70      N      0.062640000000     0.627950000000     0.454260000000    -0.11099    
N71      N      0.117740000000     0.703270000000     0.380980000000    -0.114194   
N72      N      0.155910000000     0.732400000000     0.351280000000    -0.163549   
N73      N      0.021400000000     0.981150000000     0.100260000000    -0.173621   
N74      N      0.059920000000     0.951350000000     0.129280000000    -0.110847   
N75      N      0.117670000000     0.880060000000     0.204410000000    -0.113951   
N76      N      0.156550000000     0.850710000000     0.233150000000    -0.162459   
N77      N      0.421430000000     0.613660000000     0.113160000000    -0.175837   
N78      N      0.385460000000     0.645430000000     0.144330000000    -0.110583   
N79      N      0.294980000000     0.689990000000     0.189770000000    -0.114128   
N80      N      0.258470000000     0.720330000000     0.221220000000    -0.164586   
N81      N      0.258600000000     0.862210000000     0.362210000000    -0.176703   
N82      N      0.293880000000     0.894550000000     0.393740000000    -0.110699   
N83      N      0.383630000000     0.941130000000     0.438910000000    -0.114027   
N84      N      0.419350000000     0.972410000000     0.470580000000    -0.163995   
N85      N      0.258720000000     0.719860000000     0.362960000000    -0.176378   
N86      N      0.295190000000     0.689720000000     0.394940000000    -0.110595   
N87      N      0.386040000000     0.647580000000     0.441710000000    -0.114058   
N88      N      0.422180000000     0.615760000000     0.472400000000    -0.16464    
N89      N      0.167470000000     0.859710000000     0.358850000000    -0.175535   
N90      N      0.134480000000     0.893550000000     0.391850000000    -0.11069    
N91      N      0.050230000000     0.945810000000     0.444230000000    -0.113891   
N92      N      0.015870000000     0.977910000000     0.476660000000    -0.163437   
N93      N      0.271130000000     0.847680000000     0.228720000000    -0.176992   
N94      N      0.309980000000     0.875350000000     0.198960000000    -0.110597   
N95      N      0.368430000000     0.950210000000     0.129110000000    -0.114217   
N96      N      0.407290000000     0.979950000000     0.101560000000    -0.164935   
N97      N      0.021040000000     0.600030000000     0.605750000000    -0.174716   
N98      N      0.057660000000     0.629560000000     0.637550000000    -0.111085   
N99      N      0.112650000000     0.705110000000     0.710680000000    -0.114186   
N100     N      0.151740000000     0.734490000000     0.738530000000    -0.16269    
N101     N      0.024560000000     0.598600000000     0.984000000000    -0.174564   
N102     N      0.062640000000     0.627950000000     0.954260000000    -0.111132   
N103     N      0.117740000000     0.703270000000     0.880980000000    -0.114204   
N104     N      0.155910000000     0.732400000000     0.851290000000    -0.163514   
N105     N      0.021400000000     0.981150000000     0.600260000000    -0.173628   
N106     N      0.059920000000     0.951350000000     0.629280000000    -0.110865   
N107     N      0.117670000000     0.880060000000     0.704410000000    -0.113951   
N108     N      0.156550000000     0.850710000000     0.733150000000    -0.162462   
N109     N      0.421430000000     0.613660000000     0.613160000000    -0.175841   
N110     N      0.385460000000     0.645430000000     0.644330000000    -0.110589   
N111     N      0.294980000000     0.689990000000     0.689770000000    -0.114139   
N112     N      0.258470000000     0.720330000000     0.721220000000    -0.16459    
N113     N      0.258600000000     0.862210000000     0.862210000000    -0.176701   
N114     N      0.293880000000     0.894550000000     0.893740000000    -0.110711   
N115     N      0.383630000000     0.941130000000     0.938910000000    -0.11408    
N116     N      0.419350000000     0.972410000000     0.970580000000    -0.163722   
N117     N      0.258720000000     0.719860000000     0.862960000000    -0.17638    
N118     N      0.295190000000     0.689720000000     0.894940000000    -0.110608   
N119     N      0.386040000000     0.647580000000     0.941710000000    -0.114109   
N120     N      0.422180000000     0.615760000000     0.972400000000    -0.164368   
N121     N      0.167470000000     0.859710000000     0.858850000000    -0.175536   
N122     N      0.134480000000     0.893550000000     0.891850000000    -0.110701   
N123     N      0.050230000000     0.945810000000     0.944230000000    -0.113944   
N124     N      0.015870000000     0.977910000000     0.976660000000    -0.163168   
N125     N      0.271130000000     0.847680000000     0.728720000000    -0.17697    
N126     N      0.309980000000     0.875350000000     0.698970000000    -0.110595   
N127     N      0.368430000000     0.950210000000     0.629110000000    -0.114232   
N128     N      0.407290000000     0.979950000000     0.601560000000    -0.164954   
N129     N      0.521040000000     0.100030000000     0.105750000000    -0.174848   
N130     N      0.557660000000     0.129560000000     0.137550000000    -0.111055   
N131     N      0.612650000000     0.205110000000     0.210680000000    -0.114175   
N132     N      0.651740000000     0.234490000000     0.238530000000    -0.162693   
N133     N      0.524560000000     0.098600000000     0.484000000000    -0.175099   
N134     N      0.562640000000     0.127950000000     0.454260000000    -0.110961   
N135     N      0.617740000000     0.203270000000     0.380980000000    -0.114181   
N136     N      0.655910000000     0.232400000000     0.351280000000    -0.163557   
N137     N      0.521400000000     0.481150000000     0.100260000000    -0.17402    
N138     N      0.559920000000     0.451350000000     0.129280000000    -0.110695   
N139     N      0.617670000000     0.380060000000     0.204410000000    -0.113941   
N140     N      0.656550000000     0.350700000000     0.233150000000    -0.16251    
N141     N      0.921430000000     0.113660000000     0.113160000000    -0.175869   
N142     N      0.885460000000     0.145430000000     0.144330000000    -0.110554   
N143     N      0.794980000000     0.189990000000     0.189770000000    -0.114119   
N144     N      0.758470000000     0.220330000000     0.221220000000    -0.164547   
N145     N      0.758600000000     0.362210000000     0.362210000000    -0.176718   
N146     N      0.793880000000     0.394550000000     0.393740000000    -0.110684   
N147     N      0.883630000000     0.441130000000     0.438910000000    -0.113964   
N148     N      0.919350000000     0.472410000000     0.470580000000    -0.164245   
N149     N      0.758720000000     0.219860000000     0.362960000000    -0.176391   
N150     N      0.795190000000     0.189720000000     0.394940000000    -0.110586   
N151     N      0.886040000000     0.147580000000     0.441710000000    -0.114053   
N152     N      0.922180000000     0.115760000000     0.472400000000    -0.164621   
N153     N      0.667470000000     0.359710000000     0.358850000000    -0.175562   
N154     N      0.634480000000     0.393550000000     0.391850000000    -0.110673   
N155     N      0.550230000000     0.445810000000     0.444230000000    -0.113827   
N156     N      0.515870000000     0.477910000000     0.476660000000    -0.163442   
N157     N      0.771130000000     0.347680000000     0.228720000000    -0.177054   
N158     N      0.809980000000     0.375350000000     0.198960000000    -0.110594   
N159     N      0.868430000000     0.450210000000     0.129110000000    -0.114058   
N160     N      0.907290000000     0.479950000000     0.101560000000    -0.165346   
N161     N      0.521040000000     0.100030000000     0.605750000000    -0.174841   
N162     N      0.557660000000     0.129560000000     0.637550000000    -0.111066   
N163     N      0.612650000000     0.205110000000     0.710680000000    -0.114174   
N164     N      0.651740000000     0.234490000000     0.738530000000    -0.162694   
N165     N      0.524560000000     0.098600000000     0.984000000000    -0.174691   
N166     N      0.562640000000     0.127950000000     0.954260000000    -0.111102   
N167     N      0.617740000000     0.203270000000     0.880980000000    -0.114191   
N168     N      0.655910000000     0.232400000000     0.851290000000    -0.163521   
N169     N      0.521400000000     0.481150000000     0.600260000000    -0.174027   
N170     N      0.559920000000     0.451350000000     0.629280000000    -0.110713   
N171     N      0.617670000000     0.380060000000     0.704410000000    -0.113942   
N172     N      0.656550000000     0.350700000000     0.733150000000    -0.162512   
N173     N      0.921430000000     0.113660000000     0.613160000000    -0.175873   
N174     N      0.885460000000     0.145430000000     0.644330000000    -0.11056    
N175     N      0.794980000000     0.189990000000     0.689770000000    -0.11413    
N176     N      0.758470000000     0.220330000000     0.721220000000    -0.16455    
N177     N      0.758600000000     0.362210000000     0.862210000000    -0.176716   
N178     N      0.793880000000     0.394550000000     0.893740000000    -0.110696   
N179     N      0.883630000000     0.441130000000     0.938910000000    -0.114018   
N180     N      0.919350000000     0.472410000000     0.970580000000    -0.163971   
N181     N      0.758720000000     0.219860000000     0.862960000000    -0.176393   
N182     N      0.795190000000     0.189720000000     0.894940000000    -0.1106     
N183     N      0.886040000000     0.147580000000     0.941710000000    -0.114104   
N184     N      0.922180000000     0.115760000000     0.972400000000    -0.164349   
N185     N      0.667470000000     0.359710000000     0.858850000000    -0.175563   
N186     N      0.634480000000     0.393550000000     0.891850000000    -0.110684   
N187     N      0.550230000000     0.445810000000     0.944230000000    -0.113881   
N188     N      0.515870000000     0.477910000000     0.976660000000    -0.163173   
N189     N      0.771130000000     0.347680000000     0.728720000000    -0.177032   
N190     N      0.809980000000     0.375350000000     0.698970000000    -0.110591   
N191     N      0.868430000000     0.450210000000     0.629110000000    -0.114073   
N192     N      0.907290000000     0.479950000000     0.601560000000    -0.165366   
N193     N      0.521040000000     0.600030000000     0.105750000000    -0.174842   
N194     N      0.557660000000     0.629560000000     0.137550000000    -0.111068   
N195     N      0.612650000000     0.705110000000     0.210680000000    -0.114182   
N196     N      0.651740000000     0.734490000000     0.238530000000    -0.162688   
N197     N      0.524560000000     0.598600000000     0.484000000000    -0.175097   
N198     N      0.562640000000     0.627950000000     0.454260000000    -0.110984   
N199     N      0.617740000000     0.703270000000     0.380980000000    -0.114184   
N200     N      0.655910000000     0.732400000000     0.351280000000    -0.163552   
N201     N      0.521400000000     0.981150000000     0.100260000000    -0.173737   
N202     N      0.559920000000     0.951350000000     0.129280000000    -0.11084    
N203     N      0.617670000000     0.880060000000     0.204410000000    -0.113951   
N204     N      0.656550000000     0.850710000000     0.233150000000    -0.162458   
N205     N      0.921430000000     0.613660000000     0.113160000000    -0.175831   
N206     N      0.885460000000     0.645430000000     0.144330000000    -0.110561   
N207     N      0.794980000000     0.689990000000     0.189770000000    -0.114129   
N208     N      0.758470000000     0.720330000000     0.221220000000    -0.164581   
N209     N      0.758600000000     0.862210000000     0.362210000000    -0.176699   
N210     N      0.793880000000     0.894550000000     0.393740000000    -0.1107     
N211     N      0.883630000000     0.941130000000     0.438910000000    -0.114019   
N212     N      0.919350000000     0.972410000000     0.470580000000    -0.163972   
N213     N      0.758720000000     0.719860000000     0.362960000000    -0.176382   
N214     N      0.795190000000     0.689720000000     0.394940000000    -0.110597   
N215     N      0.886040000000     0.647580000000     0.441710000000    -0.114053   
N216     N      0.922180000000     0.615760000000     0.472400000000    -0.164625   
N217     N      0.667470000000     0.859710000000     0.358850000000    -0.175557   
N218     N      0.634480000000     0.893550000000     0.391850000000    -0.110689   
N219     N      0.550230000000     0.945810000000     0.444230000000    -0.113882   
N220     N      0.515870000000     0.977910000000     0.476660000000    -0.163185   
N221     N      0.771130000000     0.847680000000     0.228720000000    -0.177004   
N222     N      0.809980000000     0.875350000000     0.198960000000    -0.110604   
N223     N      0.868430000000     0.950210000000     0.129110000000    -0.114212   
N224     N      0.907290000000     0.979950000000     0.101560000000    -0.164923   
N225     N      0.521040000000     0.600030000000     0.605750000000    -0.174836   
N226     N      0.557660000000     0.629560000000     0.637550000000    -0.111078   
N227     N      0.612650000000     0.705110000000     0.710680000000    -0.114181   
N228     N      0.651740000000     0.734490000000     0.738530000000    -0.162689   
N229     N      0.524560000000     0.598600000000     0.984000000000    -0.174688   
N230     N      0.562640000000     0.627950000000     0.954260000000    -0.111125   
N231     N      0.617740000000     0.703270000000     0.880980000000    -0.114194   
N232     N      0.655910000000     0.732400000000     0.851290000000    -0.163517   
N233     N      0.521400000000     0.981150000000     0.600260000000    -0.173745   
N234     N      0.559920000000     0.951350000000     0.629280000000    -0.110858   
N235     N      0.617670000000     0.880060000000     0.704410000000    -0.113952   
N236     N      0.656550000000     0.850710000000     0.733150000000    -0.16246    
N237     N      0.921430000000     0.613660000000     0.613160000000    -0.175834   
N238     N      0.885460000000     0.645430000000     0.644330000000    -0.110567   
N239     N      0.794980000000     0.689990000000     0.689770000000    -0.11414    
N240     N      0.758470000000     0.720330000000     0.721220000000    -0.164585   
N241     N      0.758600000000     0.862210000000     0.862210000000    -0.176698   
N242     N      0.793880000000     0.894550000000     0.893740000000    -0.110713   
N243     N      0.883630000000     0.941130000000     0.938910000000    -0.114072   
N244     N      0.919350000000     0.972410000000     0.970580000000    -0.163699   
N245     N      0.758720000000     0.719860000000     0.862960000000    -0.176385   
N246     N      0.795190000000     0.689720000000     0.894940000000    -0.11061    
N247     N      0.886040000000     0.647580000000     0.941710000000    -0.114105   
N248     N      0.922180000000     0.615760000000     0.972400000000    -0.164353   
N249     N      0.667470000000     0.859710000000     0.858850000000    -0.175558   
N250     N      0.634480000000     0.893550000000     0.891850000000    -0.1107     
N251     N      0.550230000000     0.945810000000     0.944230000000    -0.113936   
N252     N      0.515870000000     0.977910000000     0.976660000000    -0.162916   
N253     N      0.771130000000     0.847680000000     0.728720000000    -0.176982   
N254     N      0.809980000000     0.875350000000     0.698970000000    -0.110602   
N255     N      0.868430000000     0.950210000000     0.629110000000    -0.114227   
N256     N      0.907290000000     0.979950000000     0.601560000000    -0.164942   
O1       O      0.436000000000     0.483130000000     0.065530000000    -0.370694   
O2       O      0.443570000000     0.106390000000     0.514150000000    -0.368009   
O3       O      0.442330000000     0.071240000000     0.105440000000    -0.363765   
O4       O      0.440830000000     0.514300000000     0.479000000000    -0.366091   
O5       O      0.443290000000     0.105370000000     0.071540000000    -0.36833    
O6       O      0.441660000000     0.479330000000     0.512020000000    -0.3613     
O7       O      0.442930000000     0.073200000000     0.479360000000    -0.370383   
O8       O      0.436000000000     0.516300000000     0.100350000000    -0.371231   
O9       O      0.990650000000     0.483030000000     0.516020000000    -0.363448   
O10      O      0.993910000000     0.098310000000     0.067770000000    -0.3641     
O11      O      0.992620000000     0.517600000000     0.098830000000    -0.368173   
O12      O      0.993580000000     0.064910000000     0.484850000000    -0.367398   
O13      O      0.995060000000     0.098190000000     0.519510000000    -0.366247   
O14      O      0.991600000000     0.483320000000     0.065130000000    -0.369432   
O15      O      0.989810000000     0.516580000000     0.481550000000    -0.361342   
O16      O      0.991310000000     0.064970000000     0.102340000000    -0.36015    
O17      O      0.453210000000     0.542540000000     0.041900000000    -0.584106   
O18      O      0.241000000000     0.313100000000     0.231800000000    -0.370123   
O19      O      0.236410000000     0.261230000000     0.355120000000    -0.370646   
O20      O      0.237210000000     0.354030000000     0.320320000000    -0.362345   
O21      O      0.236850000000     0.227630000000     0.263190000000    -0.370026   
O22      O      0.237410000000     0.320010000000     0.354350000000    -0.364963   
O23      O      0.235470000000     0.261200000000     0.228760000000    -0.365151   
O24      O      0.237200000000     0.227410000000     0.320930000000    -0.370773   
O25      O      0.243180000000     0.347000000000     0.265790000000    -0.372805   
O26      O      0.182580000000     0.268300000000     0.237340000000    -0.36301    
O27      O      0.190450000000     0.318610000000     0.352680000000    -0.363406   
O28      O      0.186720000000     0.348760000000     0.267970000000    -0.370379   
O29      O      0.185700000000     0.232770000000     0.316250000000    -0.360728   
O30      O      0.185540000000     0.267730000000     0.349280000000    -0.369648   
O31      O      0.184860000000     0.313900000000     0.234910000000    -0.363077   
O32      O      0.183680000000     0.233980000000     0.271000000000    -0.36054    
O33      O      0.190390000000     0.351980000000     0.317990000000    -0.363368   
O34      O      0.225390000000     0.289960000000     0.291820000000    -0.583694   
O35      O      0.436000000000     0.483130000000     0.565530000000    -0.37071    
O36      O      0.443570000000     0.106390000000     0.014150000000    -0.366959   
O37      O      0.442330000000     0.071240000000     0.605440000000    -0.363768   
O38      O      0.440830000000     0.514300000000     0.979000000000    -0.365802   
O39      O      0.443290000000     0.105370000000     0.571540000000    -0.368336   
O40      O      0.441660000000     0.479330000000     0.012020000000    -0.360251   
O41      O      0.442930000000     0.073200000000     0.979360000000    -0.370085   
O42      O      0.436000000000     0.516300000000     0.600350000000    -0.371237   
O43      O      0.990650000000     0.483030000000     0.016020000000    -0.362408   
O44      O      0.993910000000     0.098310000000     0.567770000000    -0.364086   
O45      O      0.992620000000     0.517600000000     0.598830000000    -0.368181   
O46      O      0.993580000000     0.064910000000     0.984850000000    -0.367093   
O47      O      0.995060000000     0.098190000000     0.019510000000    -0.365219   
O48      O      0.991600000000     0.483320000000     0.565130000000    -0.369437   
O49      O      0.989810000000     0.516580000000     0.981550000000    -0.361038   
O50      O      0.991310000000     0.064970000000     0.602340000000    -0.360153   
O51      O      0.453210000000     0.542540000000     0.541900000000    -0.58457    
O52      O      0.241000000000     0.313100000000     0.731800000000    -0.37013    
O53      O      0.236410000000     0.261230000000     0.855120000000    -0.370655   
O54      O      0.237210000000     0.354030000000     0.820320000000    -0.362333   
O55      O      0.236850000000     0.227630000000     0.763190000000    -0.370024   
O56      O      0.237410000000     0.320010000000     0.854350000000    -0.364966   
O57      O      0.235470000000     0.261200000000     0.728760000000    -0.365161   
O58      O      0.237200000000     0.227410000000     0.820930000000    -0.370771   
O59      O      0.243180000000     0.347000000000     0.765790000000    -0.3728     
O60      O      0.182580000000     0.268300000000     0.737340000000    -0.363018   
O61      O      0.190450000000     0.318610000000     0.852680000000    -0.363445   
O62      O      0.186720000000     0.348760000000     0.767970000000    -0.370387   
O63      O      0.185700000000     0.232770000000     0.816250000000    -0.360717   
O64      O      0.185540000000     0.267730000000     0.849280000000    -0.369642   
O65      O      0.184860000000     0.313900000000     0.734910000000    -0.363087   
O66      O      0.183680000000     0.233980000000     0.771000000000    -0.360541   
O67      O      0.190390000000     0.351980000000     0.818000000000    -0.363593   
O68      O      0.225390000000     0.289960000000     0.791820000000    -0.583688   
O69      O      0.436000000000     0.983130000000     0.065530000000    -0.370407   
O70      O      0.443570000000     0.606390000000     0.514150000000    -0.367938   
O71      O      0.442330000000     0.571230000000     0.105440000000    -0.363634   
O72      O      0.440830000000     0.014300000000     0.479000000000    -0.365053   
O73      O      0.443290000000     0.605370000000     0.071540000000    -0.368201   
O74      O      0.441660000000     0.979330000000     0.512020000000    -0.361008   
O75      O      0.442930000000     0.573200000000     0.479360000000    -0.370376   
O76      O      0.436000000000     0.016300000000     0.100350000000    -0.370201   
O77      O      0.990650000000     0.983030000000     0.516020000000    -0.36316    
O78      O      0.993910000000     0.598310000000     0.067770000000    -0.364054   
O79      O      0.992620000000     0.017600000000     0.098830000000    -0.367177   
O80      O      0.993580000000     0.564910000000     0.484850000000    -0.367387   
O81      O      0.995060000000     0.598190000000     0.519510000000    -0.366201   
O82      O      0.991600000000     0.983330000000     0.065130000000    -0.369271   
O83      O      0.989810000000     0.016580000000     0.481550000000    -0.360311   
O84      O      0.991310000000     0.564970000000     0.102340000000    -0.360131   
O85      O      0.453210000000     0.042540000000     0.041900000000    -0.583603   
O86      O      0.241000000000     0.813090000000     0.231800000000    -0.370016   
O87      O      0.236410000000     0.761230000000     0.355120000000    -0.370633   
O88      O      0.237210000000     0.854030000000     0.320320000000    -0.362354   
O89      O      0.236850000000     0.727630000000     0.263190000000    -0.370021   
O90      O      0.237410000000     0.820010000000     0.354350000000    -0.364954   
O91      O      0.235470000000     0.761190000000     0.228760000000    -0.365234   
O92      O      0.237200000000     0.727410000000     0.320930000000    -0.370708   
O93      O      0.243180000000     0.847000000000     0.265790000000    -0.372761   
O94      O      0.182580000000     0.768300000000     0.237340000000    -0.362998   
O95      O      0.190450000000     0.818610000000     0.352680000000    -0.363401   
O96      O      0.186720000000     0.848760000000     0.267970000000    -0.370374   
O97      O      0.185700000000     0.732770000000     0.316250000000    -0.36068    
O98      O      0.185540000000     0.767730000000     0.349280000000    -0.369638   
O99      O      0.184860000000     0.813900000000     0.234910000000    -0.363065   
O100     O      0.183680000000     0.733980000000     0.271000000000    -0.360494   
O101     O      0.190390000000     0.851980000000     0.317990000000    -0.363375   
O102     O      0.225390000000     0.789960000000     0.291820000000    -0.583739   
O103     O      0.436000000000     0.983130000000     0.565530000000    -0.370423   
O104     O      0.443570000000     0.606390000000     0.014150000000    -0.366886   
O105     O      0.442330000000     0.571230000000     0.605440000000    -0.363638   
O106     O      0.440830000000     0.014300000000     0.979000000000    -0.364766   
O107     O      0.443290000000     0.605370000000     0.571540000000    -0.368206   
O108     O      0.441660000000     0.979330000000     0.012020000000    -0.359961   
O109     O      0.442930000000     0.573200000000     0.979360000000    -0.370077   
O110     O      0.436000000000     0.016300000000     0.600350000000    -0.370205   
O111     O      0.990650000000     0.983030000000     0.016020000000    -0.362122   
O112     O      0.993910000000     0.598310000000     0.567770000000    -0.36404    
O113     O      0.992620000000     0.017600000000     0.598830000000    -0.367184   
O114     O      0.993580000000     0.564910000000     0.984850000000    -0.367082   
O115     O      0.995060000000     0.598190000000     0.019510000000    -0.365171   
O116     O      0.991600000000     0.983330000000     0.565130000000    -0.369276   
O117     O      0.989810000000     0.016580000000     0.981550000000    -0.36001    
O118     O      0.991310000000     0.564970000000     0.602340000000    -0.360135   
O119     O      0.453210000000     0.042540000000     0.541900000000    -0.584065   
O120     O      0.241000000000     0.813090000000     0.731800000000    -0.370023   
O121     O      0.236410000000     0.761230000000     0.855120000000    -0.370642   
O122     O      0.237210000000     0.854030000000     0.820320000000    -0.362342   
O123     O      0.236850000000     0.727630000000     0.763190000000    -0.37002    
O124     O      0.237410000000     0.820010000000     0.854350000000    -0.364957   
O125     O      0.235470000000     0.761190000000     0.728760000000    -0.365244   
O126     O      0.237200000000     0.727410000000     0.820930000000    -0.370707   
O127     O      0.243180000000     0.847000000000     0.765790000000    -0.372756   
O128     O      0.182580000000     0.768300000000     0.737340000000    -0.363006   
O129     O      0.190450000000     0.818610000000     0.852680000000    -0.36344    
O130     O      0.186720000000     0.848760000000     0.767970000000    -0.370383   
O131     O      0.185700000000     0.732770000000     0.816250000000    -0.360669   
O132     O      0.185540000000     0.767730000000     0.849280000000    -0.369632   
O133     O      0.184860000000     0.813900000000     0.734910000000    -0.363075   
O134     O      0.183680000000     0.733980000000     0.771000000000    -0.360495   
O135     O      0.190390000000     0.851980000000     0.818000000000    -0.3636     
O136     O      0.225390000000     0.789960000000     0.791820000000    -0.583734   
O137     O      0.936000000000     0.483130000000     0.065530000000    -0.370579   
O138     O      0.943570000000     0.106390000000     0.514150000000    -0.367974   
O139     O      0.942330000000     0.071240000000     0.105440000000    -0.363728   
O140     O      0.940830000000     0.514300000000     0.479000000000    -0.366055   
O141     O      0.943290000000     0.105370000000     0.071540000000    -0.368298   
O142     O      0.941660000000     0.479330000000     0.512020000000    -0.361204   
O143     O      0.942930000000     0.073200000000     0.479360000000    -0.370352   
O144     O      0.936000000000     0.516300000000     0.100350000000    -0.371185   
O145     O      0.490650000000     0.483030000000     0.516020000000    -0.363413   
O146     O      0.493910000000     0.098310000000     0.067770000000    -0.364678   
O147     O      0.492620000000     0.517600000000     0.098830000000    -0.368745   
O148     O      0.493580000000     0.064910000000     0.484850000000    -0.367993   
O149     O      0.495060000000     0.098190000000     0.519510000000    -0.36683    
O150     O      0.491600000000     0.483320000000     0.065130000000    -0.369952   
O151     O      0.489810000000     0.516580000000     0.481550000000    -0.361365   
O152     O      0.491310000000     0.064970000000     0.102340000000    -0.360724   
O153     O      0.953210000000     0.542540000000     0.041900000000    -0.584047   
O154     O      0.741010000000     0.313100000000     0.231800000000    -0.370129   
O155     O      0.736410000000     0.261230000000     0.355120000000    -0.370669   
O156     O      0.737210000000     0.354030000000     0.320320000000    -0.362346   
O157     O      0.736850000000     0.227630000000     0.263190000000    -0.370013   
O158     O      0.737410000000     0.320010000000     0.354350000000    -0.364963   
O159     O      0.735470000000     0.261200000000     0.228760000000    -0.365142   
O160     O      0.737210000000     0.227410000000     0.320930000000    -0.370764   
O161     O      0.743180000000     0.347000000000     0.265790000000    -0.37284    
O162     O      0.682580000000     0.268300000000     0.237340000000    -0.363      
O163     O      0.690450000000     0.318610000000     0.352680000000    -0.363408   
O164     O      0.686720000000     0.348760000000     0.267970000000    -0.370382   
O165     O      0.685700000000     0.232770000000     0.316250000000    -0.360737   
O166     O      0.685540000000     0.267730000000     0.349280000000    -0.369652   
O167     O      0.684860000000     0.313900000000     0.234910000000    -0.36308    
O168     O      0.683680000000     0.233980000000     0.271000000000    -0.360532   
O169     O      0.690390000000     0.351980000000     0.317990000000    -0.363374   
O170     O      0.725390000000     0.289960000000     0.291820000000    -0.583676   
O171     O      0.936000000000     0.483130000000     0.565530000000    -0.370596   
O172     O      0.943570000000     0.106390000000     0.014150000000    -0.366923   
O173     O      0.942330000000     0.071240000000     0.605440000000    -0.363732   
O174     O      0.940830000000     0.514300000000     0.979000000000    -0.365766   
O175     O      0.943290000000     0.105370000000     0.571540000000    -0.368303   
O176     O      0.941660000000     0.479330000000     0.012020000000    -0.360154   
O177     O      0.942930000000     0.073200000000     0.979360000000    -0.370053   
O178     O      0.936000000000     0.516300000000     0.600350000000    -0.37119    
O179     O      0.490650000000     0.483030000000     0.016020000000    -0.362373   
O180     O      0.493910000000     0.098310000000     0.567770000000    -0.364664   
O181     O      0.492620000000     0.517600000000     0.598830000000    -0.368752   
O182     O      0.493580000000     0.064910000000     0.984850000000    -0.367686   
O183     O      0.495060000000     0.098190000000     0.019510000000    -0.3658     
O184     O      0.491600000000     0.483320000000     0.565130000000    -0.369957   
O185     O      0.489810000000     0.516580000000     0.981550000000    -0.361061   
O186     O      0.491310000000     0.064970000000     0.602340000000    -0.360727   
O187     O      0.953210000000     0.542540000000     0.541900000000    -0.584511   
O188     O      0.741010000000     0.313100000000     0.731800000000    -0.370135   
O189     O      0.736410000000     0.261230000000     0.855120000000    -0.370678   
O190     O      0.737210000000     0.354030000000     0.820320000000    -0.362335   
O191     O      0.736850000000     0.227630000000     0.763190000000    -0.370011   
O192     O      0.737410000000     0.320010000000     0.854350000000    -0.364967   
O193     O      0.735470000000     0.261200000000     0.728760000000    -0.365152   
O194     O      0.737210000000     0.227410000000     0.820930000000    -0.370762   
O195     O      0.743180000000     0.347000000000     0.765790000000    -0.372835   
O196     O      0.682580000000     0.268300000000     0.737340000000    -0.363008   
O197     O      0.690450000000     0.318610000000     0.852680000000    -0.363447   
O198     O      0.686720000000     0.348760000000     0.767970000000    -0.37039    
O199     O      0.685700000000     0.232770000000     0.816250000000    -0.360726   
O200     O      0.685540000000     0.267730000000     0.849280000000    -0.369646   
O201     O      0.684860000000     0.313900000000     0.734910000000    -0.36309    
O202     O      0.683680000000     0.233980000000     0.771000000000    -0.360533   
O203     O      0.690390000000     0.351980000000     0.818000000000    -0.363599   
O204     O      0.725390000000     0.289960000000     0.791820000000    -0.583671   
O205     O      0.936000000000     0.983130000000     0.065530000000    -0.370293   
O206     O      0.943570000000     0.606390000000     0.514150000000    -0.367903   
O207     O      0.942330000000     0.571230000000     0.105440000000    -0.363598   
O208     O      0.940830000000     0.014300000000     0.479000000000    -0.365017   
O209     O      0.943290000000     0.605370000000     0.071540000000    -0.368169   
O210     O      0.941660000000     0.979330000000     0.512020000000    -0.360912   
O211     O      0.942930000000     0.573200000000     0.479360000000    -0.370345   
O212     O      0.936000000000     0.016300000000     0.100350000000    -0.370154   
O213     O      0.490650000000     0.983030000000     0.516020000000    -0.363125   
O214     O      0.493910000000     0.598310000000     0.067770000000    -0.364632   
O215     O      0.492620000000     0.017600000000     0.098830000000    -0.367747   
O216     O      0.493580000000     0.564910000000     0.484850000000    -0.367982   
O217     O      0.495060000000     0.598190000000     0.519510000000    -0.366784   
O218     O      0.491600000000     0.983330000000     0.065130000000    -0.369789   
O219     O      0.489810000000     0.016580000000     0.481550000000    -0.360335   
O220     O      0.491310000000     0.564970000000     0.102340000000    -0.360705   
O221     O      0.953210000000     0.042540000000     0.041900000000    -0.583543   
O222     O      0.741010000000     0.813090000000     0.231800000000    -0.370022   
O223     O      0.736410000000     0.761230000000     0.355120000000    -0.370655   
O224     O      0.737210000000     0.854030000000     0.320320000000    -0.362355   
O225     O      0.736850000000     0.727630000000     0.263190000000    -0.370008   
O226     O      0.737410000000     0.820010000000     0.354350000000    -0.364954   
O227     O      0.735470000000     0.761190000000     0.228760000000    -0.365226   
O228     O      0.737210000000     0.727410000000     0.320930000000    -0.370699   
O229     O      0.743180000000     0.847000000000     0.265790000000    -0.372795   
O230     O      0.682580000000     0.768300000000     0.237340000000    -0.362989   
O231     O      0.690450000000     0.818610000000     0.352680000000    -0.363403   
O232     O      0.686720000000     0.848760000000     0.267970000000    -0.370377   
O233     O      0.685700000000     0.732770000000     0.316250000000    -0.360688   
O234     O      0.685540000000     0.767730000000     0.349280000000    -0.369641   
O235     O      0.684860000000     0.813900000000     0.234910000000    -0.363068   
O236     O      0.683680000000     0.733980000000     0.271000000000    -0.360487   
O237     O      0.690390000000     0.851980000000     0.317990000000    -0.363381   
O238     O      0.725390000000     0.789960000000     0.291820000000    -0.583722   
O239     O      0.936000000000     0.983130000000     0.565530000000    -0.370309   
O240     O      0.943570000000     0.606390000000     0.014150000000    -0.366851   
O241     O      0.942330000000     0.571230000000     0.605440000000    -0.363601   
O242     O      0.940830000000     0.014300000000     0.979000000000    -0.36473    
O243     O      0.943290000000     0.605370000000     0.571540000000    -0.368174   
O244     O      0.941660000000     0.979330000000     0.012020000000    -0.359864   
O245     O      0.942930000000     0.573200000000     0.979360000000    -0.370046   
O246     O      0.936000000000     0.016300000000     0.600350000000    -0.370158   
O247     O      0.490650000000     0.983030000000     0.016020000000    -0.362087   
O248     O      0.493910000000     0.598310000000     0.567770000000    -0.364617   
O249     O      0.492620000000     0.017600000000     0.598830000000    -0.367753   
O250     O      0.493580000000     0.564910000000     0.984850000000    -0.367674   
O251     O      0.495060000000     0.598190000000     0.019510000000    -0.365752   
O252     O      0.491600000000     0.983330000000     0.565130000000    -0.369794   
O253     O      0.489810000000     0.016580000000     0.981550000000    -0.360033   
O254     O      0.491310000000     0.564970000000     0.602340000000    -0.360708   
O255     O      0.953210000000     0.042540000000     0.541900000000    -0.584006   
O256     O      0.741010000000     0.813090000000     0.731800000000    -0.370029   
O257     O      0.736410000000     0.761230000000     0.855120000000    -0.370664   
O258     O      0.737210000000     0.854030000000     0.820320000000    -0.362344   
O259     O      0.736850000000     0.727630000000     0.763190000000    -0.370007   
O260     O      0.737410000000     0.820010000000     0.854350000000    -0.364958   
O261     O      0.735470000000     0.761190000000     0.728760000000    -0.365236   
O262     O      0.737210000000     0.727410000000     0.820930000000    -0.370698   
O263     O      0.743180000000     0.847000000000     0.765790000000    -0.37279    
O264     O      0.682580000000     0.768300000000     0.737340000000    -0.362997   
O265     O      0.690450000000     0.818610000000     0.852680000000    -0.363442   
O266     O      0.686720000000     0.848760000000     0.767970000000    -0.370386   
O267     O      0.685700000000     0.732770000000     0.816250000000    -0.360677   
O268     O      0.685540000000     0.767730000000     0.849280000000    -0.369635   
O269     O      0.684860000000     0.813900000000     0.734910000000    -0.363078   
O270     O      0.683680000000     0.733980000000     0.771000000000    -0.360488   
O271     O      0.690390000000     0.851980000000     0.818000000000    -0.363606   
O272     O      0.725390000000     0.789960000000     0.791820000000    -0.583716   


