data_structure

_audit_creation_method RASPA-1.0
_audit_creation_date 2023-5-25
_audit_author_name 'Poobodin Mano'

_cell_length_a    49.0536
_cell_length_b    49.1172
_cell_length_c    49.6397
_cell_angle_alpha 90
_cell_angle_beta  90
_cell_angle_gamma 90
_cell_volume      119601

_symmetry_cell_setting          triclinic
_symmetry_space_group_name_Hall 'P 1'
_symmetry_space_group_name_H-M  'P 1'
_symmetry_Int_Tables_number     1

_symmetry_equiv_pos_as_xyz 'x,y,z'

loop_
_atom_site_label
_atom_site_type_symbol
_atom_site_fract_x
_atom_site_fract_y
_atom_site_fract_z
_atom_site_charge
C1       C      0.465850000000     0.466660000000     0.047800000000     0.385393   
C2       C      0.055430000000     0.054770000000     0.045730000000     0.388376   
C3       C      0.059230000000     0.462180000000     0.039190000000     0.393742   
C4       C      0.465560000000     0.054570000000     0.047380000000     0.387477   
C5       C      0.463450000000     0.056350000000     0.467760000000     0.397658   
C6       C      0.058800000000     0.460370000000     0.471810000000     0.395709   
C7       C      0.456990000000     0.458890000000     0.477120000000     0.39423    
C8       C      0.060920000000     0.063550000000     0.476450000000     0.394752   
C9       C      0.305880000000     0.304330000000     0.214460000000     0.387648   
C10      C      0.217900000000     0.214340000000     0.212780000000     0.384164   
C11      C      0.305400000000     0.214860000000     0.213550000000     0.385263   
C12      C      0.213560000000     0.307510000000     0.219210000000     0.392271   
C13      C      0.209980000000     0.308860000000     0.286310000000     0.396093   
C14      C      0.306920000000     0.213760000000     0.293800000000     0.395393   
C15      C      0.313860000000     0.310580000000     0.283880000000     0.394604   
C16      C      0.209200000000     0.206700000000     0.283260000000     0.392666   
C17      C      0.078950000000     0.111250000000     0.088950000000    -0.0282781  
C18      C      0.196550000000     0.157550000000     0.169190000000    -0.0294833  
C19      C      0.181800000000     0.214360000000     0.177840000000    -0.0092128  
C20      C      0.218320000000     0.178070000000     0.178010000000    -0.0086097  
C21      C      0.139740000000     0.135130000000     0.156710000000    -0.0546567  
C22      C      0.136310000000     0.133390000000     0.100470000000    -0.0562212  
C23      C      0.156430000000     0.152370000000     0.141130000000     0.0614431  
C24      C      0.161380000000     0.192470000000     0.169160000000    -0.0290281  
C25      C      0.119700000000     0.116060000000     0.116040000000     0.063597   
C26      C      0.114350000000     0.076720000000     0.086960000000    -0.0339803  
C27      C      0.121610000000     0.117140000000     0.144190000000    -0.0528197  
C28      C      0.093970000000     0.054700000000     0.078000000000     0.0148379  
C29      C      0.056930000000     0.090840000000     0.080590000000    -0.00881813 
C30      C      0.154490000000     0.151320000000     0.112980000000    -0.0519784  
C31      C      0.086670000000     0.037110000000     0.100910000000     0.055568   
C32      C      0.079670000000     0.117390000000     0.427670000000    -0.029483   
C33      C      0.189200000000     0.153730000000     0.332460000000    -0.0295285  
C34      C      0.163650000000     0.198210000000     0.302900000000    -0.00883285 
C35      C      0.200540000000     0.162130000000     0.304940000000    -0.0085333  
C36      C      0.127240000000     0.127520000000     0.354110000000    -0.0529965  
C37      C      0.141370000000     0.144820000000     0.405930000000    -0.0529612  
C38      C      0.147120000000     0.147740000000     0.357300000000     0.0617785  
C39      C      0.153940000000     0.188400000000     0.330530000000    -0.0292002  
C40      C      0.121520000000     0.124560000000     0.402740000000     0.0625397  
C41      C      0.115810000000     0.083620000000     0.429230000000    -0.0333069  
C42      C      0.114510000000     0.115960000000     0.376570000000    -0.0560118  
C43      C      0.106270000000     0.072960000000     0.456750000000     0.0140502  
C44      C      0.068540000000     0.108470000000     0.455120000000    -0.00730203 
C45      C      0.154100000000     0.156380000000     0.383470000000    -0.0554731  
C46      C      0.123660000000     0.083920000000     0.478360000000     0.0571019  
C47      C      0.079870000000     0.407820000000     0.087640000000    -0.0296145  
C48      C      0.194870000000     0.362290000000     0.170300000000    -0.0295473  
C49      C      0.170440000000     0.314220000000     0.195120000000    -0.009253   
C50      C      0.207270000000     0.351280000000     0.196270000000    -0.00672244 
C51      C      0.131960000000     0.390590000000     0.156040000000    -0.0524736  
C52      C      0.143170000000     0.380560000000     0.101700000000    -0.0524392  
C53      C      0.151630000000     0.371240000000     0.148980000000     0.0638111  
C54      C      0.160140000000     0.327380000000     0.169240000000    -0.0278817  
C55      C      0.123410000000     0.399830000000     0.108750000000     0.0640305  
C56      C      0.114060000000     0.443330000000     0.087920000000    -0.0341473  
C57      C      0.117890000000     0.404860000000     0.136120000000    -0.0556335  
C58      C      0.103490000000     0.455870000000     0.061690000000     0.0155276  
C59      C      0.067080000000     0.418310000000     0.061620000000    -0.00626304 
C60      C      0.157250000000     0.366310000000     0.121610000000    -0.0556452  
C61      C      0.121720000000     0.448600000000     0.039220000000     0.0602736  
C62      C      0.408810000000     0.076510000000     0.090320000000    -0.0291253  
C63      C      0.361820000000     0.193500000000     0.169980000000    -0.0293455  
C64      C      0.304860000000     0.178990000000     0.178490000000    -0.0086068  
C65      C      0.341300000000     0.215320000000     0.178450000000    -0.00879721 
C66      C      0.369040000000     0.151680000000     0.114390000000    -0.053323   
C67      C      0.401810000000     0.118080000000     0.146350000000    -0.0530608  
C68      C      0.367060000000     0.153230000000     0.142490000000     0.0619552  
C69      C      0.326660000000     0.158450000000     0.170000000000    -0.029424   
C70      C      0.403740000000     0.116490000000     0.118250000000     0.0629241  
C71      C      0.444370000000     0.111120000000     0.091100000000    -0.0334303  
C72      C      0.387210000000     0.133510000000     0.102280000000    -0.0561949  
C73      C      0.466210000000     0.090490000000     0.082450000000     0.0145826  
C74      C      0.429110000000     0.054480000000     0.081900000000    -0.00766049 
C75      C      0.383660000000     0.136280000000     0.158460000000    -0.0552886  
C76      C      0.481890000000     0.081270000000     0.106040000000     0.0526724  
C77      C      0.367410000000     0.329940000000     0.332840000000    -0.0292879  
C78      C      0.403820000000     0.439650000000     0.427730000000    -0.0302181  
C79      C      0.448020000000     0.413570000000     0.457310000000    -0.00806461 
C80      C      0.412320000000     0.450860000000     0.455280000000    -0.00749206 
C81      C      0.406070000000     0.404540000000     0.376720000000    -0.0551988  
C82      C      0.365550000000     0.365070000000     0.383680000000    -0.0559579  
C83      C      0.397370000000     0.397670000000     0.402900000000     0.0621064  
C84      C      0.438130000000     0.404060000000     0.429660000000    -0.0294842  
C85      C      0.374250000000     0.371940000000     0.357510000000     0.0625826  
C86      C      0.333400000000     0.365830000000     0.330860000000    -0.0333594  
C87      C      0.394540000000     0.391750000000     0.354280000000    -0.052307   
C88      C      0.322920000000     0.356050000000     0.303370000000     0.0141142  
C89      C      0.358670000000     0.318570000000     0.305440000000    -0.00756918 
C90      C      0.377080000000     0.377860000000     0.406120000000    -0.0531694  
C91      C      0.333900000000     0.373320000000     0.281690000000     0.0568714  
C92      C      0.441880000000     0.113200000000     0.423870000000    -0.0291513  
C93      C      0.328370000000     0.157590000000     0.338360000000    -0.0295755  
C94      C      0.343720000000     0.213930000000     0.327790000000    -0.00819505 
C95      C      0.306850000000     0.177770000000     0.328570000000    -0.00811322 
C96      C      0.368320000000     0.153190000000     0.395570000000    -0.0534855  
C97      C      0.402150000000     0.118000000000     0.366480000000    -0.0531068  
C98      C      0.367630000000     0.153500000000     0.367380000000     0.0621714  
C99      C      0.363740000000     0.192270000000     0.337610000000    -0.0294291  
C100     C      0.402810000000     0.117660000000     0.394670000000     0.0630082  
C101     C      0.406260000000     0.078830000000     0.424410000000    -0.0334917  
C102     C      0.385750000000     0.135440000000     0.409200000000    -0.0562172  
C103     C      0.425950000000     0.056830000000     0.434510000000     0.0148347  
C104     C      0.463300000000     0.092890000000     0.433580000000    -0.00726897 
C105     C      0.384730000000     0.135760000000     0.352850000000    -0.055466   
C106     C      0.434220000000     0.038960000000     0.412140000000     0.0552107  
C107     C      0.189090000000     0.363190000000     0.334190000000    -0.0292064  
C108     C      0.077450000000     0.405420000000     0.423430000000    -0.0291813  
C109     C      0.102710000000     0.452570000000     0.449020000000    -0.0101114  
C110     C      0.066030000000     0.415810000000     0.450170000000    -0.00796409 
C111     C      0.139460000000     0.377510000000     0.405020000000    -0.0530053  
C112     C      0.126360000000     0.390360000000     0.351680000000    -0.052707   
C113     C      0.119710000000     0.397390000000     0.399720000000     0.0627172  
C114     C      0.112270000000     0.440380000000     0.422340000000    -0.0279798  
C115     C      0.146230000000     0.370610000000     0.356990000000     0.0629776  
C116     C      0.154260000000     0.328170000000     0.333490000000    -0.0334462  
C117     C      0.152640000000     0.364150000000     0.383890000000    -0.0557924  
C118     C      0.164720000000     0.316440000000     0.306770000000     0.0145152  
C119     C      0.201330000000     0.353380000000     0.307610000000    -0.00728846 
C120     C      0.113120000000     0.403680000000     0.372820000000    -0.0556156  
C121     C      0.147110000000     0.325340000000     0.284410000000     0.0577947  
C122     C      0.362780000000     0.327040000000     0.171270000000    -0.0295806  
C123     C      0.409670000000     0.444880000000     0.091900000000    -0.0291555  
C124     C      0.466350000000     0.430050000000     0.082200000000    -0.00927175 
C125     C      0.430210000000     0.466690000000     0.083250000000    -0.00901468 
C126     C      0.403670000000     0.402130000000     0.147400000000    -0.0520493  
C127     C      0.369080000000     0.369840000000     0.116030000000    -0.0530424  
C128     C      0.404620000000     0.404330000000     0.119270000000     0.0616618  
C129     C      0.444460000000     0.409590000000     0.090810000000    -0.0289219  
C130     C      0.368080000000     0.367690000000     0.144160000000     0.0629783  
C131     C      0.328520000000     0.362730000000     0.173040000000    -0.0343725  
C132     C      0.385610000000     0.384000000000     0.159820000000    -0.0558477  
C133     C      0.306260000000     0.342610000000     0.181960000000     0.0152431  
C134     C      0.342110000000     0.305270000000     0.179690000000    -0.00694971 
C135     C      0.387170000000     0.387940000000     0.103610000000    -0.055076   
C136     C      0.288700000000     0.335370000000     0.158990000000     0.0527995  
C137     C      0.465850000000     0.466660000000     0.547800000000     0.385643   
C138     C      0.055430000000     0.054770000000     0.545730000000     0.388634   
C139     C      0.059230000000     0.462180000000     0.539190000000     0.393976   
C140     C      0.465560000000     0.054570000000     0.547380000000     0.387703   
C141     C      0.463450000000     0.056350000000     0.967760000000     0.39742    
C142     C      0.058800000000     0.460370000000     0.971810000000     0.395564   
C143     C      0.456990000000     0.458890000000     0.977120000000     0.394038   
C144     C      0.060920000000     0.063550000000     0.976450000000     0.394508   
C145     C      0.305880000000     0.304330000000     0.714460000000     0.387648   
C146     C      0.217900000000     0.214340000000     0.712780000000     0.384163   
C147     C      0.305400000000     0.214860000000     0.713550000000     0.385156   
C148     C      0.213560000000     0.307510000000     0.719210000000     0.392326   
C149     C      0.209980000000     0.308860000000     0.786310000000     0.396105   
C150     C      0.306920000000     0.213760000000     0.793800000000     0.395392   
C151     C      0.313860000000     0.310580000000     0.783880000000     0.394606   
C152     C      0.209200000000     0.206700000000     0.783260000000     0.392667   
C153     C      0.078950000000     0.111250000000     0.588950000000    -0.0283054  
C154     C      0.196550000000     0.157550000000     0.669190000000    -0.0294657  
C155     C      0.181800000000     0.214360000000     0.677840000000    -0.00922097 
C156     C      0.218320000000     0.178070000000     0.678010000000    -0.0086552  
C157     C      0.139740000000     0.135130000000     0.656710000000    -0.0546491  
C158     C      0.136310000000     0.133390000000     0.600470000000    -0.0561892  
C159     C      0.156430000000     0.152370000000     0.641130000000     0.0614622  
C160     C      0.161380000000     0.192470000000     0.669160000000    -0.0290239  
C161     C      0.119700000000     0.116060000000     0.616040000000     0.0636256  
C162     C      0.114350000000     0.076720000000     0.586960000000    -0.0340084  
C163     C      0.121610000000     0.117140000000     0.644190000000    -0.0528172  
C164     C      0.093970000000     0.054700000000     0.578010000000     0.014869   
C165     C      0.056930000000     0.090840000000     0.580590000000    -0.00877085 
C166     C      0.154490000000     0.151320000000     0.612980000000    -0.0519187  
C167     C      0.086670000000     0.037110000000     0.600910000000     0.0555455  
C168     C      0.079670000000     0.117390000000     0.927670000000    -0.0294621  
C169     C      0.189200000000     0.153730000000     0.832460000000    -0.0295476  
C170     C      0.163650000000     0.198210000000     0.802900000000    -0.00882372 
C171     C      0.200540000000     0.162130000000     0.804940000000    -0.00852322 
C172     C      0.127240000000     0.127520000000     0.854110000000    -0.0529518  
C173     C      0.141370000000     0.144820000000     0.905930000000    -0.0529328  
C174     C      0.147120000000     0.147740000000     0.857300000000     0.0617203  
C175     C      0.153940000000     0.188400000000     0.830530000000    -0.0292104  
C176     C      0.121520000000     0.124560000000     0.902740000000     0.0625509  
C177     C      0.115810000000     0.083620000000     0.929230000000    -0.0333008  
C178     C      0.114510000000     0.115960000000     0.876560000000    -0.0560003  
C179     C      0.106270000000     0.072960000000     0.956740000000     0.0140161  
C180     C      0.068540000000     0.108470000000     0.955110000000    -0.0073271  
C181     C      0.154100000000     0.156380000000     0.883470000000    -0.0554154  
C182     C      0.123660000000     0.083920000000     0.978360000000     0.0574866  
C183     C      0.079870000000     0.407820000000     0.587640000000    -0.0295473  
C184     C      0.194870000000     0.362290000000     0.670300000000    -0.0295618  
C185     C      0.170440000000     0.314220000000     0.695120000000    -0.00923595 
C186     C      0.207270000000     0.351280000000     0.696280000000    -0.00673333 
C187     C      0.131960000000     0.390590000000     0.656040000000    -0.052433   
C188     C      0.143170000000     0.380560000000     0.601700000000    -0.0524217  
C189     C      0.151630000000     0.371240000000     0.648980000000     0.0637603  
C190     C      0.160140000000     0.327380000000     0.669240000000    -0.0279072  
C191     C      0.123410000000     0.399830000000     0.608750000000     0.0640804  
C192     C      0.114060000000     0.443330000000     0.587920000000    -0.0341384  
C193     C      0.117890000000     0.404860000000     0.636120000000    -0.0556536  
C194     C      0.103490000000     0.455870000000     0.561690000000     0.0155144  
C195     C      0.067080000000     0.418310000000     0.561620000000    -0.00629938 
C196     C      0.157250000000     0.366310000000     0.621610000000    -0.0555784  
C197     C      0.121720000000     0.448600000000     0.539230000000     0.0605773  
C198     C      0.408810000000     0.076510000000     0.590320000000    -0.0291487  
C199     C      0.361820000000     0.193500000000     0.669980000000    -0.0293463  
C200     C      0.304860000000     0.178990000000     0.678490000000    -0.00860778 
C201     C      0.341300000000     0.215320000000     0.678450000000    -0.00879817 
C202     C      0.369040000000     0.151680000000     0.614390000000    -0.0532805  
C203     C      0.401810000000     0.118080000000     0.646350000000    -0.0530847  
C204     C      0.367060000000     0.153230000000     0.642490000000     0.0619739  
C205     C      0.326660000000     0.158450000000     0.670000000000    -0.0294246  
C206     C      0.403740000000     0.116490000000     0.618260000000     0.0629414  
C207     C      0.444370000000     0.111120000000     0.591100000000    -0.0334517  
C208     C      0.387210000000     0.133510000000     0.602280000000    -0.0561405  
C209     C      0.466210000000     0.090490000000     0.582450000000     0.014609   
C210     C      0.429110000000     0.054480000000     0.581900000000    -0.0076263  
C211     C      0.383660000000     0.136280000000     0.658460000000    -0.0552734  
C212     C      0.481890000000     0.081270000000     0.606040000000     0.0526531  
C213     C      0.367410000000     0.329940000000     0.832840000000    -0.0293046  
C214     C      0.403820000000     0.439650000000     0.927730000000    -0.0301864  
C215     C      0.448020000000     0.413570000000     0.957310000000    -0.008108   
C216     C      0.412320000000     0.450860000000     0.955280000000    -0.00753098 
C217     C      0.406070000000     0.404540000000     0.876720000000    -0.0552152  
C218     C      0.365550000000     0.365070000000     0.883690000000    -0.0558814  
C219     C      0.397370000000     0.397670000000     0.902900000000     0.0621534  
C220     C      0.438130000000     0.404060000000     0.929660000000    -0.0294514  
C221     C      0.374250000000     0.371940000000     0.857510000000     0.0625452  
C222     C      0.333400000000     0.365830000000     0.830870000000    -0.0334143  
C223     C      0.394540000000     0.391750000000     0.854280000000    -0.0522763  
C224     C      0.322920000000     0.356050000000     0.803370000000     0.0141221  
C225     C      0.358670000000     0.318570000000     0.805440000000    -0.00756291 
C226     C      0.377080000000     0.377860000000     0.906120000000    -0.0531392  
C227     C      0.333900000000     0.373320000000     0.781690000000     0.056858   
C228     C      0.441880000000     0.113200000000     0.923870000000    -0.0291864  
C229     C      0.328370000000     0.157590000000     0.838360000000    -0.0295629  
C230     C      0.343720000000     0.213930000000     0.827790000000    -0.00822688 
C231     C      0.306850000000     0.177770000000     0.828560000000    -0.00808926 
C232     C      0.368320000000     0.153190000000     0.895570000000    -0.0533881  
C233     C      0.402150000000     0.118000000000     0.866480000000    -0.0531294  
C234     C      0.367630000000     0.153500000000     0.867380000000     0.0621405  
C235     C      0.363740000000     0.192270000000     0.837610000000    -0.0293569  
C236     C      0.402810000000     0.117660000000     0.894670000000     0.0630659  
C237     C      0.406260000000     0.078830000000     0.924410000000    -0.0335073  
C238     C      0.385750000000     0.135440000000     0.909200000000    -0.0562707  
C239     C      0.425950000000     0.056830000000     0.934510000000     0.0148396  
C240     C      0.463300000000     0.092890000000     0.933590000000    -0.0072124  
C241     C      0.384730000000     0.135760000000     0.852850000000    -0.055429   
C242     C      0.434220000000     0.038960000000     0.912140000000     0.0552322  
C243     C      0.189090000000     0.363190000000     0.834200000000    -0.0292779  
C244     C      0.077450000000     0.405420000000     0.923420000000    -0.029163   
C245     C      0.102710000000     0.452570000000     0.949020000000    -0.0101596  
C246     C      0.066030000000     0.415810000000     0.950160000000    -0.007978   
C247     C      0.139460000000     0.377510000000     0.905020000000    -0.0530508  
C248     C      0.126360000000     0.390360000000     0.851680000000    -0.0526791  
C249     C      0.119710000000     0.397390000000     0.899720000000     0.0627989  
C250     C      0.112270000000     0.440380000000     0.922340000000    -0.0279426  
C251     C      0.146230000000     0.370610000000     0.856990000000     0.0629639  
C252     C      0.154260000000     0.328170000000     0.833490000000    -0.033467   
C253     C      0.152640000000     0.364150000000     0.883890000000    -0.0557112  
C254     C      0.164720000000     0.316440000000     0.806770000000     0.0145219  
C255     C      0.201330000000     0.353380000000     0.807610000000    -0.00727146 
C256     C      0.113120000000     0.403680000000     0.872820000000    -0.0556416  
C257     C      0.147110000000     0.325340000000     0.784410000000     0.0577929  
C258     C      0.362780000000     0.327040000000     0.671270000000    -0.0296053  
C259     C      0.409670000000     0.444880000000     0.591900000000    -0.0292013  
C260     C      0.466350000000     0.430050000000     0.582200000000    -0.00922751 
C261     C      0.430210000000     0.466690000000     0.583240000000    -0.00892594 
C262     C      0.403670000000     0.402130000000     0.647400000000    -0.0520642  
C263     C      0.369080000000     0.369840000000     0.616030000000    -0.0529891  
C264     C      0.404620000000     0.404330000000     0.619270000000     0.0616924  
C265     C      0.444460000000     0.409590000000     0.590810000000    -0.0289493  
C266     C      0.368080000000     0.367690000000     0.644160000000     0.0630059  
C267     C      0.328520000000     0.362730000000     0.673040000000    -0.0344029  
C268     C      0.385610000000     0.384000000000     0.659810000000    -0.0557914  
C269     C      0.306260000000     0.342610000000     0.681960000000     0.01525    
C270     C      0.342110000000     0.305270000000     0.679690000000    -0.00694728 
C271     C      0.387170000000     0.387940000000     0.603610000000    -0.0550482  
C272     C      0.288700000000     0.335370000000     0.658990000000     0.0528433  
C273     C      0.465850000000     0.966660000000     0.047800000000     0.385377   
C274     C      0.055430000000     0.554770000000     0.045730000000     0.388447   
C275     C      0.059230000000     0.962180000000     0.039190000000     0.393727   
C276     C      0.465560000000     0.554570000000     0.047380000000     0.387492   
C277     C      0.463450000000     0.556350000000     0.467760000000     0.397671   
C278     C      0.058800000000     0.960380000000     0.471810000000     0.395748   
C279     C      0.456990000000     0.958890000000     0.477120000000     0.394215   
C280     C      0.060920000000     0.563550000000     0.476450000000     0.394768   
C281     C      0.305880000000     0.804330000000     0.214460000000     0.387647   
C282     C      0.217900000000     0.714340000000     0.212780000000     0.384222   
C283     C      0.305400000000     0.714860000000     0.213550000000     0.385262   
C284     C      0.213560000000     0.807510000000     0.219210000000     0.392268   
C285     C      0.209980000000     0.808860000000     0.286310000000     0.396091   
C286     C      0.306920000000     0.713760000000     0.293800000000     0.395392   
C287     C      0.313860000000     0.810580000000     0.283880000000     0.394602   
C288     C      0.209200000000     0.706700000000     0.283260000000     0.392665   
C289     C      0.078950000000     0.611250000000     0.088950000000    -0.0282633  
C290     C      0.196550000000     0.657550000000     0.169190000000    -0.0294735  
C291     C      0.181800000000     0.714360000000     0.177840000000    -0.00915949 
C292     C      0.218320000000     0.678070000000     0.178010000000    -0.00865891 
C293     C      0.139740000000     0.635120000000     0.156710000000    -0.0546179  
C294     C      0.136310000000     0.633390000000     0.100470000000    -0.0562253  
C295     C      0.156430000000     0.652370000000     0.141130000000     0.0614186  
C296     C      0.161380000000     0.692470000000     0.169160000000    -0.0290513  
C297     C      0.119700000000     0.616060000000     0.116040000000     0.0636076  
C298     C      0.114350000000     0.576720000000     0.086960000000    -0.0339949  
C299     C      0.121610000000     0.617140000000     0.144190000000    -0.0528161  
C300     C      0.093970000000     0.554700000000     0.078000000000     0.0148736  
C301     C      0.056930000000     0.590840000000     0.080590000000    -0.00887003 
C302     C      0.154490000000     0.651320000000     0.112980000000    -0.0519613  
C303     C      0.086670000000     0.537110000000     0.100910000000     0.0556658  
C304     C      0.079670000000     0.617390000000     0.427670000000    -0.0294879  
C305     C      0.189200000000     0.653730000000     0.332460000000    -0.0295289  
C306     C      0.163650000000     0.698210000000     0.302900000000    -0.00883411 
C307     C      0.200540000000     0.662130000000     0.304940000000    -0.008535   
C308     C      0.127240000000     0.627520000000     0.354110000000    -0.0529864  
C309     C      0.141370000000     0.644820000000     0.405930000000    -0.0529571  
C310     C      0.147120000000     0.647740000000     0.357300000000     0.0617836  
C311     C      0.153940000000     0.688400000000     0.330530000000    -0.0292003  
C312     C      0.121520000000     0.624560000000     0.402740000000     0.0625438  
C313     C      0.115810000000     0.583610000000     0.429230000000    -0.0334242  
C314     C      0.114510000000     0.615960000000     0.376570000000    -0.0560032  
C315     C      0.106270000000     0.572960000000     0.456750000000     0.0140951  
C316     C      0.068540000000     0.608470000000     0.455120000000    -0.00729519 
C317     C      0.154100000000     0.656380000000     0.383470000000    -0.0554703  
C318     C      0.123660000000     0.583920000000     0.478360000000     0.0571264  
C319     C      0.079870000000     0.907820000000     0.087640000000    -0.029586   
C320     C      0.194870000000     0.862290000000     0.170300000000    -0.0295469  
C321     C      0.170440000000     0.814220000000     0.195120000000    -0.00930518 
C322     C      0.207270000000     0.851280000000     0.196270000000    -0.00672692 
C323     C      0.131960000000     0.890600000000     0.156040000000    -0.0524613  
C324     C      0.143170000000     0.880560000000     0.101700000000    -0.052437   
C325     C      0.151630000000     0.871240000000     0.148980000000     0.0637983  
C326     C      0.160140000000     0.827390000000     0.169240000000    -0.0277729  
C327     C      0.123410000000     0.899830000000     0.108750000000     0.0640353  
C328     C      0.114060000000     0.943330000000     0.087920000000    -0.0341468  
C329     C      0.117890000000     0.904860000000     0.136120000000    -0.0556132  
C330     C      0.103490000000     0.955870000000     0.061690000000     0.0155191  
C331     C      0.067080000000     0.918310000000     0.061620000000    -0.00626564 
C332     C      0.157250000000     0.866310000000     0.121610000000    -0.0556343  
C333     C      0.121720000000     0.948600000000     0.039220000000     0.0603283  
C334     C      0.408810000000     0.576510000000     0.090320000000    -0.0291181  
C335     C      0.361820000000     0.693500000000     0.169980000000    -0.0293475  
C336     C      0.304860000000     0.678990000000     0.178490000000    -0.00860529 
C337     C      0.341300000000     0.715320000000     0.178450000000    -0.00879723 
C338     C      0.369040000000     0.651680000000     0.114390000000    -0.0533172  
C339     C      0.401810000000     0.618080000000     0.146350000000    -0.0530537  
C340     C      0.367060000000     0.653230000000     0.142490000000     0.0619573  
C341     C      0.326660000000     0.658450000000     0.170000000000    -0.029428   
C342     C      0.403740000000     0.616490000000     0.118250000000     0.0629338  
C343     C      0.444370000000     0.611120000000     0.091100000000    -0.0334297  
C344     C      0.387210000000     0.633510000000     0.102280000000    -0.0561932  
C345     C      0.466210000000     0.590490000000     0.082450000000     0.0145811  
C346     C      0.429110000000     0.554480000000     0.081900000000    -0.00767232 
C347     C      0.383660000000     0.636280000000     0.158460000000    -0.0552794  
C348     C      0.481890000000     0.581270000000     0.106040000000     0.0527021  
C349     C      0.367410000000     0.829940000000     0.332840000000    -0.0292829  
C350     C      0.403820000000     0.939660000000     0.427730000000    -0.0303301  
C351     C      0.448020000000     0.913570000000     0.457310000000    -0.00805497 
C352     C      0.412320000000     0.950860000000     0.455280000000    -0.00744378 
C353     C      0.406070000000     0.904540000000     0.376720000000    -0.0551769  
C354     C      0.365550000000     0.865070000000     0.383680000000    -0.055948   
C355     C      0.397370000000     0.897660000000     0.402900000000     0.0621065  
C356     C      0.438130000000     0.904060000000     0.429660000000    -0.0294915  
C357     C      0.374250000000     0.871940000000     0.357510000000     0.0625874  
C358     C      0.333400000000     0.865830000000     0.330860000000    -0.0333606  
C359     C      0.394540000000     0.891750000000     0.354280000000    -0.0522993  
C360     C      0.322920000000     0.856050000000     0.303370000000     0.0141135  
C361     C      0.358670000000     0.818570000000     0.305440000000    -0.00757948 
C362     C      0.377080000000     0.877860000000     0.406120000000    -0.0531807  
C363     C      0.333900000000     0.873320000000     0.281690000000     0.0568947  
C364     C      0.441880000000     0.613200000000     0.423870000000    -0.0291501  
C365     C      0.328370000000     0.657590000000     0.338360000000    -0.0295795  
C366     C      0.343720000000     0.713930000000     0.327790000000    -0.00819489 
C367     C      0.306850000000     0.677770000000     0.328570000000    -0.00811181 
C368     C      0.368320000000     0.653190000000     0.395570000000    -0.0534802  
C369     C      0.402150000000     0.618000000000     0.366480000000    -0.0531002  
C370     C      0.367630000000     0.653500000000     0.367380000000     0.0621734  
C371     C      0.363740000000     0.692270000000     0.337610000000    -0.0294312  
C372     C      0.402810000000     0.617660000000     0.394670000000     0.0630167  
C373     C      0.406260000000     0.578830000000     0.424410000000    -0.0334884  
C374     C      0.385750000000     0.635440000000     0.409200000000    -0.0562155  
C375     C      0.425950000000     0.556830000000     0.434510000000     0.0148237  
C376     C      0.463300000000     0.592890000000     0.433580000000    -0.00727167 
C377     C      0.384730000000     0.635760000000     0.352850000000    -0.0554572  
C378     C      0.434220000000     0.538960000000     0.412140000000     0.0553067  
C379     C      0.189090000000     0.863190000000     0.334190000000    -0.0292072  
C380     C      0.077450000000     0.905420000000     0.423430000000    -0.0291856  
C381     C      0.102710000000     0.952570000000     0.449020000000    -0.0101822  
C382     C      0.066030000000     0.915810000000     0.450170000000    -0.00796066 
C383     C      0.139460000000     0.877510000000     0.405020000000    -0.0530023  
C384     C      0.126360000000     0.890360000000     0.351680000000    -0.052694   
C385     C      0.119710000000     0.897390000000     0.399720000000     0.0627263  
C386     C      0.112270000000     0.940370000000     0.422340000000    -0.0278654  
C387     C      0.146230000000     0.870610000000     0.356990000000     0.0629845  
C388     C      0.154260000000     0.828170000000     0.333490000000    -0.0334286  
C389     C      0.152640000000     0.864150000000     0.383890000000    -0.0557881  
C390     C      0.164720000000     0.816440000000     0.306770000000     0.0145082  
C391     C      0.201330000000     0.853380000000     0.307610000000    -0.00729011 
C392     C      0.113120000000     0.903680000000     0.372820000000    -0.0556092  
C393     C      0.147110000000     0.825340000000     0.284410000000     0.0578003  
C394     C      0.362780000000     0.827040000000     0.171270000000    -0.0295827  
C395     C      0.409670000000     0.944880000000     0.091900000000    -0.0291458  
C396     C      0.466350000000     0.930050000000     0.082200000000    -0.00927995 
C397     C      0.430210000000     0.966690000000     0.083250000000    -0.00902991 
C398     C      0.403670000000     0.902130000000     0.147400000000    -0.0520414  
C399     C      0.369080000000     0.869840000000     0.116030000000    -0.0530352  
C400     C      0.404620000000     0.904330000000     0.119270000000     0.061674   
C401     C      0.444460000000     0.909590000000     0.090810000000    -0.0289184  
C402     C      0.368080000000     0.867690000000     0.144160000000     0.0629804  
C403     C      0.328520000000     0.862730000000     0.173040000000    -0.0343765  
C404     C      0.385610000000     0.884000000000     0.159820000000    -0.0558368  
C405     C      0.306260000000     0.842610000000     0.181960000000     0.0152434  
C406     C      0.342110000000     0.805270000000     0.179690000000    -0.00694994 
C407     C      0.387170000000     0.887940000000     0.103610000000    -0.0550742  
C408     C      0.288700000000     0.835370000000     0.158990000000     0.0528053  
C409     C      0.465850000000     0.966660000000     0.547800000000     0.385627   
C410     C      0.055430000000     0.554770000000     0.545730000000     0.388705   
C411     C      0.059230000000     0.962180000000     0.539190000000     0.39396    
C412     C      0.465560000000     0.554570000000     0.547380000000     0.387717   
C413     C      0.463450000000     0.556350000000     0.967760000000     0.397434   
C414     C      0.058800000000     0.960380000000     0.971810000000     0.395603   
C415     C      0.456990000000     0.958890000000     0.977120000000     0.394023   
C416     C      0.060920000000     0.563550000000     0.976450000000     0.394523   
C417     C      0.305880000000     0.804330000000     0.714460000000     0.387647   
C418     C      0.217900000000     0.714340000000     0.712780000000     0.38422    
C419     C      0.305400000000     0.714860000000     0.713550000000     0.385156   
C420     C      0.213560000000     0.807510000000     0.719210000000     0.392324   
C421     C      0.209980000000     0.808860000000     0.786310000000     0.396103   
C422     C      0.306920000000     0.713760000000     0.793800000000     0.395391   
C423     C      0.313860000000     0.810580000000     0.783880000000     0.394604   
C424     C      0.209200000000     0.706700000000     0.783260000000     0.392665   
C425     C      0.078950000000     0.611250000000     0.588950000000    -0.0282907  
C426     C      0.196550000000     0.657550000000     0.669190000000    -0.0294559  
C427     C      0.181800000000     0.714360000000     0.677840000000    -0.00916766 
C428     C      0.218320000000     0.678070000000     0.678010000000    -0.00870442 
C429     C      0.139740000000     0.635120000000     0.656710000000    -0.0546103  
C430     C      0.136310000000     0.633390000000     0.600470000000    -0.0561933  
C431     C      0.156430000000     0.652370000000     0.641130000000     0.0614378  
C432     C      0.161380000000     0.692470000000     0.669160000000    -0.0290471  
C433     C      0.119700000000     0.616060000000     0.616040000000     0.0636362  
C434     C      0.114350000000     0.576720000000     0.586960000000    -0.034023   
C435     C      0.121610000000     0.617140000000     0.644190000000    -0.0528136  
C436     C      0.093970000000     0.554700000000     0.578010000000     0.0149047  
C437     C      0.056930000000     0.590840000000     0.580590000000    -0.00882271 
C438     C      0.154490000000     0.651320000000     0.612980000000    -0.0519016  
C439     C      0.086670000000     0.537110000000     0.600910000000     0.0556432  
C440     C      0.079670000000     0.617390000000     0.927670000000    -0.029467   
C441     C      0.189200000000     0.653730000000     0.832460000000    -0.029548   
C442     C      0.163650000000     0.698210000000     0.802900000000    -0.00882499 
C443     C      0.200540000000     0.662130000000     0.804940000000    -0.00852492 
C444     C      0.127240000000     0.627520000000     0.854110000000    -0.0529417  
C445     C      0.141370000000     0.644820000000     0.905930000000    -0.0529288  
C446     C      0.147120000000     0.647740000000     0.857300000000     0.0617254  
C447     C      0.153940000000     0.688400000000     0.830530000000    -0.0292105  
C448     C      0.121520000000     0.624560000000     0.902740000000     0.062555   
C449     C      0.115810000000     0.583610000000     0.929230000000    -0.0334181  
C450     C      0.114510000000     0.615960000000     0.876560000000    -0.0559916  
C451     C      0.106270000000     0.572960000000     0.956740000000     0.014061   
C452     C      0.068540000000     0.608470000000     0.955110000000    -0.00732026 
C453     C      0.154100000000     0.656380000000     0.883470000000    -0.0554126  
C454     C      0.123660000000     0.583920000000     0.978360000000     0.0575112  
C455     C      0.079870000000     0.907820000000     0.587640000000    -0.0295188  
C456     C      0.194870000000     0.862290000000     0.670300000000    -0.0295614  
C457     C      0.170440000000     0.814220000000     0.695120000000    -0.00928813 
C458     C      0.207270000000     0.851280000000     0.696280000000    -0.00673782 
C459     C      0.131960000000     0.890600000000     0.656040000000    -0.0524208  
C460     C      0.143170000000     0.880560000000     0.601700000000    -0.0524196  
C461     C      0.151630000000     0.871240000000     0.648980000000     0.0637474  
C462     C      0.160140000000     0.827390000000     0.669240000000    -0.0277983  
C463     C      0.123410000000     0.899830000000     0.608750000000     0.0640851  
C464     C      0.114060000000     0.943330000000     0.587920000000    -0.0341379  
C465     C      0.117890000000     0.904860000000     0.636120000000    -0.0556333  
C466     C      0.103490000000     0.955870000000     0.561690000000     0.0155059  
C467     C      0.067080000000     0.918310000000     0.561620000000    -0.006302   
C468     C      0.157250000000     0.866310000000     0.621610000000    -0.0555675  
C469     C      0.121720000000     0.948600000000     0.539230000000     0.0606312  
C470     C      0.408810000000     0.576510000000     0.590320000000    -0.0291414  
C471     C      0.361820000000     0.693500000000     0.669980000000    -0.0293483  
C472     C      0.304860000000     0.678990000000     0.678490000000    -0.00860628 
C473     C      0.341300000000     0.715320000000     0.678450000000    -0.00879819 
C474     C      0.369040000000     0.651680000000     0.614390000000    -0.0532746  
C475     C      0.401810000000     0.618080000000     0.646350000000    -0.0530776  
C476     C      0.367060000000     0.653230000000     0.642490000000     0.061976   
C477     C      0.326660000000     0.658450000000     0.670000000000    -0.0294286  
C478     C      0.403740000000     0.616490000000     0.618260000000     0.0629512  
C479     C      0.444370000000     0.611120000000     0.591100000000    -0.0334512  
C480     C      0.387210000000     0.633510000000     0.602280000000    -0.0561387  
C481     C      0.466210000000     0.590490000000     0.582450000000     0.0146075  
C482     C      0.429110000000     0.554480000000     0.581900000000    -0.00763812 
C483     C      0.383660000000     0.636280000000     0.658460000000    -0.0552642  
C484     C      0.481890000000     0.581270000000     0.606040000000     0.0526827  
C485     C      0.367410000000     0.829940000000     0.832840000000    -0.0292996  
C486     C      0.403820000000     0.939660000000     0.927730000000    -0.0302985  
C487     C      0.448020000000     0.913570000000     0.957310000000    -0.00809831 
C488     C      0.412320000000     0.950860000000     0.955280000000    -0.00748263 
C489     C      0.406070000000     0.904540000000     0.876720000000    -0.0551933  
C490     C      0.365550000000     0.865070000000     0.883690000000    -0.0558714  
C491     C      0.397370000000     0.897660000000     0.902900000000     0.0621534  
C492     C      0.438130000000     0.904060000000     0.929660000000    -0.0294588  
C493     C      0.374250000000     0.871940000000     0.857510000000     0.0625501  
C494     C      0.333400000000     0.865830000000     0.830870000000    -0.0334154  
C495     C      0.394540000000     0.891750000000     0.854280000000    -0.0522688  
C496     C      0.322920000000     0.856050000000     0.803370000000     0.0141214  
C497     C      0.358670000000     0.818570000000     0.805440000000    -0.0075732  
C498     C      0.377080000000     0.877860000000     0.906120000000    -0.0531506  
C499     C      0.333900000000     0.873320000000     0.781690000000     0.0568812  
C500     C      0.441880000000     0.613200000000     0.923870000000    -0.0291851  
C501     C      0.328370000000     0.657590000000     0.838360000000    -0.0295669  
C502     C      0.343720000000     0.713930000000     0.827790000000    -0.00822672 
C503     C      0.306850000000     0.677770000000     0.828560000000    -0.00808785 
C504     C      0.368320000000     0.653190000000     0.895570000000    -0.0533828  
C505     C      0.402150000000     0.618000000000     0.866480000000    -0.0531227  
C506     C      0.367630000000     0.653500000000     0.867380000000     0.0621425  
C507     C      0.363740000000     0.692270000000     0.837610000000    -0.029359   
C508     C      0.402810000000     0.617660000000     0.894670000000     0.0630743  
C509     C      0.406260000000     0.578830000000     0.924410000000    -0.033504   
C510     C      0.385750000000     0.635440000000     0.909200000000    -0.056269   
C511     C      0.425950000000     0.556830000000     0.934510000000     0.0148286  
C512     C      0.463300000000     0.592890000000     0.933590000000    -0.00721509 
C513     C      0.384730000000     0.635760000000     0.852850000000    -0.0554202  
C514     C      0.434220000000     0.538960000000     0.912140000000     0.0553279  
C515     C      0.189090000000     0.863190000000     0.834200000000    -0.0292788  
C516     C      0.077450000000     0.905420000000     0.923420000000    -0.0291673  
C517     C      0.102710000000     0.952570000000     0.949020000000    -0.0102303  
C518     C      0.066030000000     0.915810000000     0.950160000000    -0.00797455 
C519     C      0.139460000000     0.877510000000     0.905020000000    -0.0530478  
C520     C      0.126360000000     0.890360000000     0.851680000000    -0.0526662  
C521     C      0.119710000000     0.897390000000     0.899720000000     0.062808   
C522     C      0.112270000000     0.940370000000     0.922340000000    -0.0278283  
C523     C      0.146230000000     0.870610000000     0.856990000000     0.0629708  
C524     C      0.154260000000     0.828170000000     0.833490000000    -0.0334494  
C525     C      0.152640000000     0.864150000000     0.883890000000    -0.055707   
C526     C      0.164720000000     0.816440000000     0.806770000000     0.0145149  
C527     C      0.201330000000     0.853380000000     0.807610000000    -0.00727312 
C528     C      0.113120000000     0.903680000000     0.872820000000    -0.0556352  
C529     C      0.147110000000     0.825340000000     0.784410000000     0.0577985  
C530     C      0.362780000000     0.827040000000     0.671270000000    -0.0296075  
C531     C      0.409670000000     0.944880000000     0.591900000000    -0.0291916  
C532     C      0.466350000000     0.930050000000     0.582200000000    -0.00923576 
C533     C      0.430210000000     0.966690000000     0.583240000000    -0.00894118 
C534     C      0.403670000000     0.902130000000     0.647400000000    -0.0520563  
C535     C      0.369080000000     0.869840000000     0.616030000000    -0.0529819  
C536     C      0.404620000000     0.904330000000     0.619270000000     0.0617045  
C537     C      0.444460000000     0.909590000000     0.590810000000    -0.0289457  
C538     C      0.368080000000     0.867690000000     0.644160000000     0.0630081  
C539     C      0.328520000000     0.862730000000     0.673040000000    -0.0344068  
C540     C      0.385610000000     0.884000000000     0.659810000000    -0.0557805  
C541     C      0.306260000000     0.842610000000     0.681960000000     0.0152503  
C542     C      0.342110000000     0.805270000000     0.679690000000    -0.0069475  
C543     C      0.387170000000     0.887940000000     0.603610000000    -0.0550464  
C544     C      0.288700000000     0.835370000000     0.658990000000     0.052849   
C545     C      0.965850000000     0.466660000000     0.047800000000     0.385366   
C546     C      0.555430000000     0.054770000000     0.045730000000     0.388401   
C547     C      0.559230000000     0.462180000000     0.039190000000     0.393768   
C548     C      0.965560000000     0.054570000000     0.047380000000     0.387222   
C549     C      0.963450000000     0.056350000000     0.467760000000     0.397631   
C550     C      0.558800000000     0.460370000000     0.471810000000     0.395734   
C551     C      0.956990000000     0.458890000000     0.477120000000     0.39407    
C552     C      0.560920000000     0.063550000000     0.476450000000     0.394773   
C553     C      0.805880000000     0.304330000000     0.214460000000     0.387674   
C554     C      0.717900000000     0.214340000000     0.212780000000     0.384193   
C555     C      0.805400000000     0.214860000000     0.213550000000     0.38529    
C556     C      0.713560000000     0.307510000000     0.219210000000     0.3923     
C557     C      0.709980000000     0.308860000000     0.286310000000     0.396124   
C558     C      0.806920000000     0.213760000000     0.293800000000     0.395421   
C559     C      0.813860000000     0.310580000000     0.283880000000     0.394636   
C560     C      0.709200000000     0.206700000000     0.283260000000     0.3927     
C561     C      0.578950000000     0.111250000000     0.088950000000    -0.0282662  
C562     C      0.696550000000     0.157550000000     0.169190000000    -0.0294871  
C563     C      0.681800000000     0.214360000000     0.177840000000    -0.00917284 
C564     C      0.718320000000     0.178070000000     0.178010000000    -0.00860807 
C565     C      0.639740000000     0.135130000000     0.156710000000    -0.054644   
C566     C      0.636310000000     0.133390000000     0.100470000000    -0.0562191  
C567     C      0.656430000000     0.152370000000     0.141130000000     0.0614454  
C568     C      0.661380000000     0.192470000000     0.169160000000    -0.0290484  
C569     C      0.619700000000     0.116060000000     0.116040000000     0.0636106  
C570     C      0.614350000000     0.076720000000     0.086960000000    -0.0339788  
C571     C      0.621610000000     0.117140000000     0.144190000000    -0.0528105  
C572     C      0.593970000000     0.054700000000     0.078000000000     0.0148357  
C573     C      0.556930000000     0.090840000000     0.080590000000    -0.00883701 
C574     C      0.654490000000     0.151320000000     0.112980000000    -0.0519705  
C575     C      0.586670000000     0.037110000000     0.100910000000     0.0556127  
C576     C      0.579670000000     0.117390000000     0.427670000000    -0.0294848  
C577     C      0.689200000000     0.153730000000     0.332460000000    -0.0295275  
C578     C      0.663650000000     0.198210000000     0.302900000000    -0.00881474 
C579     C      0.700540000000     0.162130000000     0.304940000000    -0.00853381 
C580     C      0.627240000000     0.127520000000     0.354110000000    -0.0529983  
C581     C      0.641370000000     0.144820000000     0.405930000000    -0.0529454  
C582     C      0.647120000000     0.147740000000     0.357300000000     0.0617931  
C583     C      0.653950000000     0.188400000000     0.330530000000    -0.029159   
C584     C      0.621520000000     0.124560000000     0.402740000000     0.0625309  
C585     C      0.615810000000     0.083620000000     0.429230000000    -0.0332938  
C586     C      0.614520000000     0.115960000000     0.376570000000    -0.0559495  
C587     C      0.606270000000     0.072960000000     0.456750000000     0.0140477  
C588     C      0.568540000000     0.108470000000     0.455120000000    -0.00730453 
C589     C      0.654100000000     0.156380000000     0.383470000000    -0.0554755  
C590     C      0.623660000000     0.083920000000     0.478360000000     0.0571011  
C591     C      0.579870000000     0.407820000000     0.087640000000    -0.029645   
C592     C      0.694870000000     0.362290000000     0.170300000000    -0.0295482  
C593     C      0.670440000000     0.314220000000     0.195120000000    -0.00925128 
C594     C      0.707270000000     0.351280000000     0.196270000000    -0.0067223  
C595     C      0.631960000000     0.390590000000     0.156040000000    -0.0524675  
C596     C      0.643170000000     0.380560000000     0.101700000000    -0.0524288  
C597     C      0.651630000000     0.371240000000     0.148980000000     0.063833   
C598     C      0.660140000000     0.327380000000     0.169240000000    -0.0278842  
C599     C      0.623410000000     0.399830000000     0.108750000000     0.0640336  
C600     C      0.614050000000     0.443330000000     0.087920000000    -0.0341049  
C601     C      0.617890000000     0.404860000000     0.136120000000    -0.055619   
C602     C      0.603490000000     0.455870000000     0.061690000000     0.0155207  
C603     C      0.567090000000     0.418310000000     0.061620000000    -0.00618861 
C604     C      0.657250000000     0.366310000000     0.121610000000    -0.0556824  
C605     C      0.621720000000     0.448600000000     0.039220000000     0.0602694  
C606     C      0.908810000000     0.076510000000     0.090320000000    -0.0291569  
C607     C      0.861820000000     0.193500000000     0.169980000000    -0.0293551  
C608     C      0.804860000000     0.178990000000     0.178490000000    -0.00860609 
C609     C      0.841300000000     0.215320000000     0.178450000000    -0.00879224 
C610     C      0.869040000000     0.151680000000     0.114390000000    -0.0533178  
C611     C      0.901810000000     0.118080000000     0.146350000000    -0.0530269  
C612     C      0.867070000000     0.153230000000     0.142490000000     0.0619515  
C613     C      0.826660000000     0.158450000000     0.170000000000    -0.0294267  
C614     C      0.903740000000     0.116490000000     0.118250000000     0.06289    
C615     C      0.944370000000     0.111120000000     0.091100000000    -0.0333699  
C616     C      0.887210000000     0.133510000000     0.102280000000    -0.0561754  
C617     C      0.966210000000     0.090490000000     0.082450000000     0.014538   
C618     C      0.929110000000     0.054480000000     0.081900000000    -0.00765761 
C619     C      0.883660000000     0.136280000000     0.158460000000    -0.0552955  
C620     C      0.981890000000     0.081270000000     0.106040000000     0.0528368  
C621     C      0.867410000000     0.329940000000     0.332840000000    -0.0293111  
C622     C      0.903820000000     0.439650000000     0.427730000000    -0.0302209  
C623     C      0.948020000000     0.413570000000     0.457310000000    -0.00807499 
C624     C      0.912320000000     0.450860000000     0.455280000000    -0.00749087 
C625     C      0.906070000000     0.404540000000     0.376720000000    -0.0551747  
C626     C      0.865550000000     0.365070000000     0.383680000000    -0.0559318  
C627     C      0.897370000000     0.397670000000     0.402900000000     0.0621133  
C628     C      0.938130000000     0.404060000000     0.429660000000    -0.0294832  
C629     C      0.874260000000     0.371940000000     0.357510000000     0.0625645  
C630     C      0.833400000000     0.365830000000     0.330860000000    -0.0333591  
C631     C      0.894550000000     0.391750000000     0.354280000000    -0.0523045  
C632     C      0.822920000000     0.356050000000     0.303370000000     0.0141145  
C633     C      0.858670000000     0.318570000000     0.305440000000    -0.00756024 
C634     C      0.877080000000     0.377860000000     0.406120000000    -0.0531725  
C635     C      0.833900000000     0.373320000000     0.281690000000     0.0568757  
C636     C      0.941880000000     0.113200000000     0.423870000000    -0.0291443  
C637     C      0.828370000000     0.157590000000     0.338360000000    -0.0295702  
C638     C      0.843720000000     0.213930000000     0.327790000000    -0.00819105 
C639     C      0.806850000000     0.177770000000     0.328570000000    -0.00811822 
C640     C      0.868320000000     0.153190000000     0.395570000000    -0.0534779  
C641     C      0.902150000000     0.118000000000     0.366480000000    -0.0530962  
C642     C      0.867630000000     0.153500000000     0.367380000000     0.0621777  
C643     C      0.863740000000     0.192270000000     0.337610000000    -0.0294353  
C644     C      0.902810000000     0.117660000000     0.394670000000     0.0630213  
C645     C      0.906250000000     0.078830000000     0.424410000000    -0.0335977  
C646     C      0.885750000000     0.135440000000     0.409200000000    -0.056213   
C647     C      0.925950000000     0.056830000000     0.434510000000     0.0148584  
C648     C      0.963300000000     0.092890000000     0.433580000000    -0.00728456 
C649     C      0.884730000000     0.135760000000     0.352850000000    -0.0554528  
C650     C      0.934230000000     0.038960000000     0.412140000000     0.0552725  
C651     C      0.689090000000     0.363190000000     0.334190000000    -0.029209   
C652     C      0.577450000000     0.405420000000     0.423430000000    -0.029188   
C653     C      0.602710000000     0.452570000000     0.449020000000    -0.0101056  
C654     C      0.566030000000     0.415810000000     0.450170000000    -0.00795555 
C655     C      0.639460000000     0.377510000000     0.405020000000    -0.0529954  
C656     C      0.626360000000     0.390360000000     0.351680000000    -0.0526755  
C657     C      0.619710000000     0.397390000000     0.399720000000     0.0627272  
C658     C      0.612270000000     0.440380000000     0.422340000000    -0.0279848  
C659     C      0.646240000000     0.370610000000     0.356990000000     0.0629907  
C660     C      0.654260000000     0.328170000000     0.333490000000    -0.033447   
C661     C      0.652640000000     0.364150000000     0.383890000000    -0.0557987  
C662     C      0.664720000000     0.316440000000     0.306770000000     0.014516   
C663     C      0.701330000000     0.353380000000     0.307610000000    -0.00728793 
C664     C      0.613120000000     0.403680000000     0.372820000000    -0.0556115  
C665     C      0.647110000000     0.325340000000     0.284410000000     0.0578166  
C666     C      0.862780000000     0.327040000000     0.171270000000    -0.0295861  
C667     C      0.909670000000     0.444880000000     0.091900000000    -0.0291528  
C668     C      0.966350000000     0.430050000000     0.082200000000    -0.00928995 
C669     C      0.930210000000     0.466690000000     0.083250000000    -0.00901694 
C670     C      0.903670000000     0.402130000000     0.147400000000    -0.0520388  
C671     C      0.869080000000     0.369840000000     0.116030000000    -0.0530348  
C672     C      0.904620000000     0.404330000000     0.119270000000     0.061676   
C673     C      0.944460000000     0.409590000000     0.090810000000    -0.0289113  
C674     C      0.868080000000     0.367690000000     0.144160000000     0.0629831  
C675     C      0.828530000000     0.362730000000     0.173040000000    -0.0343428  
C676     C      0.885610000000     0.384000000000     0.159820000000    -0.0558345  
C677     C      0.806260000000     0.342610000000     0.181960000000     0.0152188  
C678     C      0.842110000000     0.305270000000     0.179690000000    -0.00694704 
C679     C      0.887170000000     0.387940000000     0.103610000000    -0.0550731  
C680     C      0.788700000000     0.335370000000     0.158990000000     0.0528008  
C681     C      0.965850000000     0.466660000000     0.547800000000     0.385616   
C682     C      0.555430000000     0.054770000000     0.545730000000     0.388659   
C683     C      0.559230000000     0.462180000000     0.539190000000     0.394002   
C684     C      0.965560000000     0.054570000000     0.547380000000     0.387447   
C685     C      0.963450000000     0.056350000000     0.967760000000     0.397394   
C686     C      0.558800000000     0.460370000000     0.971810000000     0.395589   
C687     C      0.956990000000     0.458890000000     0.977120000000     0.393879   
C688     C      0.560920000000     0.063550000000     0.976450000000     0.394528   
C689     C      0.805880000000     0.304330000000     0.714460000000     0.387674   
C690     C      0.717900000000     0.214340000000     0.712780000000     0.384192   
C691     C      0.805400000000     0.214860000000     0.713550000000     0.385184   
C692     C      0.713560000000     0.307510000000     0.719210000000     0.392356   
C693     C      0.709980000000     0.308860000000     0.786310000000     0.396136   
C694     C      0.806920000000     0.213760000000     0.793800000000     0.39542    
C695     C      0.813860000000     0.310580000000     0.783880000000     0.394638   
C696     C      0.709200000000     0.206700000000     0.783260000000     0.3927     
C697     C      0.578950000000     0.111250000000     0.588950000000    -0.0282936  
C698     C      0.696550000000     0.157550000000     0.669190000000    -0.0294696  
C699     C      0.681800000000     0.214360000000     0.677840000000    -0.00918101 
C700     C      0.718320000000     0.178070000000     0.678010000000    -0.00865356 
C701     C      0.639740000000     0.135130000000     0.656710000000    -0.0546364  
C702     C      0.636310000000     0.133390000000     0.600470000000    -0.0561871  
C703     C      0.656430000000     0.152370000000     0.641130000000     0.0614646  
C704     C      0.661380000000     0.192470000000     0.669160000000    -0.0290443  
C705     C      0.619700000000     0.116060000000     0.616040000000     0.0636392  
C706     C      0.614350000000     0.076720000000     0.586960000000    -0.0340069  
C707     C      0.621610000000     0.117140000000     0.644190000000    -0.052808   
C708     C      0.593970000000     0.054700000000     0.578010000000     0.0148668  
C709     C      0.556930000000     0.090840000000     0.580590000000    -0.00878971 
C710     C      0.654490000000     0.151320000000     0.612980000000    -0.0519108  
C711     C      0.586670000000     0.037110000000     0.600910000000     0.0555902  
C712     C      0.579670000000     0.117390000000     0.927670000000    -0.0294639  
C713     C      0.689200000000     0.153730000000     0.832460000000    -0.0295465  
C714     C      0.663650000000     0.198210000000     0.802900000000    -0.00880562 
C715     C      0.700540000000     0.162130000000     0.804940000000    -0.00852373 
C716     C      0.627240000000     0.127520000000     0.854110000000    -0.0529536  
C717     C      0.641370000000     0.144820000000     0.905930000000    -0.0529171  
C718     C      0.647120000000     0.147740000000     0.857300000000     0.0617348  
C719     C      0.653950000000     0.188400000000     0.830530000000    -0.0291691  
C720     C      0.621520000000     0.124560000000     0.902740000000     0.0625421  
C721     C      0.615810000000     0.083620000000     0.929230000000    -0.0332877  
C722     C      0.614520000000     0.115960000000     0.876560000000    -0.0559379  
C723     C      0.606270000000     0.072960000000     0.956740000000     0.0140136  
C724     C      0.568540000000     0.108470000000     0.955110000000    -0.00732958 
C725     C      0.654100000000     0.156380000000     0.883470000000    -0.0554178  
C726     C      0.623660000000     0.083920000000     0.978360000000     0.0574858  
C727     C      0.579870000000     0.407820000000     0.587640000000    -0.0295777  
C728     C      0.694870000000     0.362290000000     0.670300000000    -0.0295627  
C729     C      0.670440000000     0.314220000000     0.695120000000    -0.00923422 
C730     C      0.707270000000     0.351280000000     0.696280000000    -0.0067332  
C731     C      0.631960000000     0.390590000000     0.656040000000    -0.052427   
C732     C      0.643170000000     0.380560000000     0.601700000000    -0.0524114  
C733     C      0.651630000000     0.371240000000     0.648980000000     0.0637822  
C734     C      0.660140000000     0.327380000000     0.669240000000    -0.0279096  
C735     C      0.623410000000     0.399830000000     0.608750000000     0.0640836  
C736     C      0.614050000000     0.443330000000     0.587920000000    -0.034096   
C737     C      0.617890000000     0.404860000000     0.636120000000    -0.055639   
C738     C      0.603490000000     0.455870000000     0.561690000000     0.0155075  
C739     C      0.567090000000     0.418310000000     0.561620000000    -0.00622497 
C740     C      0.657250000000     0.366310000000     0.621610000000    -0.0556155  
C741     C      0.621720000000     0.448600000000     0.539230000000     0.0605731  
C742     C      0.908810000000     0.076510000000     0.590320000000    -0.0291802  
C743     C      0.861820000000     0.193500000000     0.669980000000    -0.0293558  
C744     C      0.804860000000     0.178990000000     0.678490000000    -0.00860708 
C745     C      0.841300000000     0.215320000000     0.678450000000    -0.0087932  
C746     C      0.869040000000     0.151680000000     0.614390000000    -0.0532753  
C747     C      0.901810000000     0.118080000000     0.646350000000    -0.0530508  
C748     C      0.867070000000     0.153230000000     0.642490000000     0.0619702  
C749     C      0.826660000000     0.158450000000     0.670000000000    -0.0294274  
C750     C      0.903740000000     0.116490000000     0.618260000000     0.0629074  
C751     C      0.944370000000     0.111120000000     0.591100000000    -0.0333912  
C752     C      0.887210000000     0.133510000000     0.602280000000    -0.056121   
C753     C      0.966210000000     0.090490000000     0.582450000000     0.0145643  
C754     C      0.929110000000     0.054480000000     0.581900000000    -0.00762347 
C755     C      0.883660000000     0.136280000000     0.658460000000    -0.0552803  
C756     C      0.981890000000     0.081270000000     0.606040000000     0.0528172  
C757     C      0.867410000000     0.329940000000     0.832840000000    -0.0293279  
C758     C      0.903820000000     0.439650000000     0.927730000000    -0.0301893  
C759     C      0.948020000000     0.413570000000     0.957310000000    -0.00811828 
C760     C      0.912320000000     0.450860000000     0.955280000000    -0.00752975 
C761     C      0.906070000000     0.404540000000     0.876720000000    -0.0551911  
C762     C      0.865550000000     0.365070000000     0.883690000000    -0.0558553  
C763     C      0.897370000000     0.397670000000     0.902900000000     0.0621602  
C764     C      0.938130000000     0.404060000000     0.929660000000    -0.0294505  
C765     C      0.874260000000     0.371940000000     0.857510000000     0.0625272  
C766     C      0.833400000000     0.365830000000     0.830870000000    -0.033414   
C767     C      0.894550000000     0.391750000000     0.854280000000    -0.052274   
C768     C      0.822920000000     0.356050000000     0.803370000000     0.0141224  
C769     C      0.858670000000     0.318570000000     0.805440000000    -0.00755396 
C770     C      0.877080000000     0.377860000000     0.906120000000    -0.0531424  
C771     C      0.833900000000     0.373320000000     0.781690000000     0.0568622  
C772     C      0.941880000000     0.113200000000     0.923870000000    -0.0291794  
C773     C      0.828370000000     0.157590000000     0.838360000000    -0.0295575  
C774     C      0.843720000000     0.213930000000     0.827790000000    -0.00822288 
C775     C      0.806850000000     0.177770000000     0.828560000000    -0.00809425 
C776     C      0.868320000000     0.153190000000     0.895570000000    -0.0533805  
C777     C      0.902150000000     0.118000000000     0.866480000000    -0.0531187  
C778     C      0.867630000000     0.153500000000     0.867380000000     0.0621468  
C779     C      0.863740000000     0.192270000000     0.837610000000    -0.0293631  
C780     C      0.902810000000     0.117660000000     0.894670000000     0.0630789  
C781     C      0.906250000000     0.078830000000     0.924410000000    -0.0336133  
C782     C      0.885750000000     0.135440000000     0.909200000000    -0.0562665  
C783     C      0.925950000000     0.056830000000     0.934510000000     0.0148633  
C784     C      0.963300000000     0.092890000000     0.933590000000    -0.00722794 
C785     C      0.884730000000     0.135760000000     0.852850000000    -0.0554159  
C786     C      0.934230000000     0.038960000000     0.912140000000     0.0552937  
C787     C      0.689090000000     0.363190000000     0.834200000000    -0.0292806  
C788     C      0.577450000000     0.405420000000     0.923420000000    -0.0291697  
C789     C      0.602710000000     0.452570000000     0.949020000000    -0.0101539  
C790     C      0.566030000000     0.415810000000     0.950160000000    -0.00796936 
C791     C      0.639460000000     0.377510000000     0.905020000000    -0.0530409  
C792     C      0.626360000000     0.390360000000     0.851680000000    -0.0526476  
C793     C      0.619710000000     0.397390000000     0.899720000000     0.0628089  
C794     C      0.612270000000     0.440380000000     0.922340000000    -0.0279476  
C795     C      0.646240000000     0.370610000000     0.856990000000     0.0629769  
C796     C      0.654260000000     0.328170000000     0.833490000000    -0.0334678  
C797     C      0.652640000000     0.364150000000     0.883890000000    -0.0557176  
C798     C      0.664720000000     0.316440000000     0.806770000000     0.0145227  
C799     C      0.701330000000     0.353380000000     0.807610000000    -0.00727093 
C800     C      0.613120000000     0.403680000000     0.872820000000    -0.0556375  
C801     C      0.647110000000     0.325340000000     0.784410000000     0.0578148  
C802     C      0.862780000000     0.327040000000     0.671270000000    -0.0296109  
C803     C      0.909670000000     0.444880000000     0.591900000000    -0.0291987  
C804     C      0.966350000000     0.430050000000     0.582200000000    -0.00924573 
C805     C      0.930210000000     0.466690000000     0.583240000000    -0.00892824 
C806     C      0.903670000000     0.402130000000     0.647400000000    -0.0520538  
C807     C      0.869080000000     0.369840000000     0.616030000000    -0.0529815  
C808     C      0.904620000000     0.404330000000     0.619270000000     0.0617065  
C809     C      0.944460000000     0.409590000000     0.590810000000    -0.0289387  
C810     C      0.868080000000     0.367690000000     0.644160000000     0.0630108  
C811     C      0.828530000000     0.362730000000     0.673040000000    -0.0343732  
C812     C      0.885610000000     0.384000000000     0.659810000000    -0.0557782  
C813     C      0.806260000000     0.342610000000     0.681960000000     0.0152257  
C814     C      0.842110000000     0.305270000000     0.679690000000    -0.00694461 
C815     C      0.887170000000     0.387940000000     0.603610000000    -0.0550454  
C816     C      0.788700000000     0.335370000000     0.658990000000     0.0528446  
C817     C      0.965850000000     0.966660000000     0.047800000000     0.385351   
C818     C      0.555430000000     0.554770000000     0.045730000000     0.388472   
C819     C      0.559230000000     0.962180000000     0.039190000000     0.393752   
C820     C      0.965560000000     0.554570000000     0.047380000000     0.387236   
C821     C      0.963450000000     0.556350000000     0.467760000000     0.397644   
C822     C      0.558800000000     0.960380000000     0.471810000000     0.395773   
C823     C      0.956990000000     0.958890000000     0.477120000000     0.394055   
C824     C      0.560920000000     0.563550000000     0.476450000000     0.394789   
C825     C      0.805880000000     0.804330000000     0.214460000000     0.387673   
C826     C      0.717900000000     0.714340000000     0.212780000000     0.384251   
C827     C      0.805400000000     0.714860000000     0.213550000000     0.385289   
C828     C      0.713560000000     0.807510000000     0.219210000000     0.392298   
C829     C      0.709980000000     0.808860000000     0.286310000000     0.396122   
C830     C      0.806920000000     0.713760000000     0.293800000000     0.39542    
C831     C      0.813860000000     0.810580000000     0.283880000000     0.394634   
C832     C      0.709200000000     0.706700000000     0.283260000000     0.392699   
C833     C      0.578950000000     0.611250000000     0.088950000000    -0.0282514  
C834     C      0.696550000000     0.657550000000     0.169190000000    -0.0294773  
C835     C      0.681800000000     0.714360000000     0.177840000000    -0.00911953 
C836     C      0.718320000000     0.678070000000     0.178010000000    -0.00865728 
C837     C      0.639740000000     0.635120000000     0.156710000000    -0.0546051  
C838     C      0.636310000000     0.633390000000     0.100470000000    -0.0562232  
C839     C      0.656430000000     0.652370000000     0.141130000000     0.061421   
C840     C      0.661380000000     0.692470000000     0.169160000000    -0.0290716  
C841     C      0.619700000000     0.616060000000     0.116040000000     0.0636213  
C842     C      0.614350000000     0.576720000000     0.086960000000    -0.0339934  
C843     C      0.621610000000     0.617140000000     0.144190000000    -0.0528069  
C844     C      0.593970000000     0.554700000000     0.078000000000     0.0148713  
C845     C      0.556930000000     0.590840000000     0.080590000000    -0.00888894 
C846     C      0.654490000000     0.651320000000     0.112980000000    -0.0519534  
C847     C      0.586670000000     0.537110000000     0.100910000000     0.0557107  
C848     C      0.579670000000     0.617390000000     0.427670000000    -0.0294897  
C849     C      0.689200000000     0.653730000000     0.332460000000    -0.0295279  
C850     C      0.663650000000     0.698210000000     0.302900000000    -0.00881601 
C851     C      0.700540000000     0.662130000000     0.304940000000    -0.00853551 
C852     C      0.627240000000     0.627520000000     0.354110000000    -0.0529882  
C853     C      0.641370000000     0.644820000000     0.405930000000    -0.0529414  
C854     C      0.647120000000     0.647740000000     0.357300000000     0.0617982  
C855     C      0.653950000000     0.688400000000     0.330530000000    -0.0291591  
C856     C      0.621520000000     0.624560000000     0.402740000000     0.062535   
C857     C      0.615810000000     0.583610000000     0.429230000000    -0.0334111  
C858     C      0.614520000000     0.615960000000     0.376570000000    -0.0559408  
C859     C      0.606270000000     0.572960000000     0.456750000000     0.0140925  
C860     C      0.568540000000     0.608470000000     0.455120000000    -0.00729768 
C861     C      0.654100000000     0.656380000000     0.383470000000    -0.0554727  
C862     C      0.623660000000     0.583920000000     0.478360000000     0.0571257  
C863     C      0.579870000000     0.907820000000     0.087640000000    -0.0296165  
C864     C      0.694870000000     0.862290000000     0.170300000000    -0.0295478  
C865     C      0.670440000000     0.814220000000     0.195120000000    -0.00930345 
C866     C      0.707270000000     0.851280000000     0.196270000000    -0.00672678 
C867     C      0.631960000000     0.890600000000     0.156040000000    -0.0524553  
C868     C      0.643170000000     0.880560000000     0.101700000000    -0.0524266  
C869     C      0.651630000000     0.871240000000     0.148980000000     0.0638202  
C870     C      0.660140000000     0.827390000000     0.169240000000    -0.0277753  
C871     C      0.623410000000     0.899830000000     0.108750000000     0.0640384  
C872     C      0.614050000000     0.943330000000     0.087920000000    -0.0341044  
C873     C      0.617890000000     0.904860000000     0.136120000000    -0.0555987  
C874     C      0.603490000000     0.955870000000     0.061690000000     0.0155121  
C875     C      0.567090000000     0.918310000000     0.061620000000    -0.00619121 
C876     C      0.657250000000     0.866310000000     0.121610000000    -0.0556714  
C877     C      0.621720000000     0.948600000000     0.039220000000     0.0603241  
C878     C      0.908810000000     0.576510000000     0.090320000000    -0.0291497  
C879     C      0.861820000000     0.693500000000     0.169980000000    -0.0293571  
C880     C      0.804860000000     0.678990000000     0.178490000000    -0.00860459 
C881     C      0.841300000000     0.715320000000     0.178450000000    -0.00879226 
C882     C      0.869040000000     0.651680000000     0.114390000000    -0.053312   
C883     C      0.901810000000     0.618080000000     0.146350000000    -0.0530199  
C884     C      0.867070000000     0.653230000000     0.142490000000     0.0619536  
C885     C      0.826660000000     0.658450000000     0.170000000000    -0.0294308  
C886     C      0.903740000000     0.616490000000     0.118250000000     0.0628998  
C887     C      0.944370000000     0.611120000000     0.091100000000    -0.0333693  
C888     C      0.887210000000     0.633510000000     0.102280000000    -0.0561737  
C889     C      0.966210000000     0.590490000000     0.082450000000     0.0145364  
C890     C      0.929110000000     0.554480000000     0.081900000000    -0.00766946 
C891     C      0.883660000000     0.636280000000     0.158460000000    -0.0552863  
C892     C      0.981890000000     0.581270000000     0.106040000000     0.0528667  
C893     C      0.867410000000     0.829940000000     0.332840000000    -0.0293062  
C894     C      0.903820000000     0.939660000000     0.427730000000    -0.030333   
C895     C      0.948020000000     0.913570000000     0.457310000000    -0.00806535 
C896     C      0.912320000000     0.950860000000     0.455280000000    -0.0074426  
C897     C      0.906070000000     0.904540000000     0.376720000000    -0.0551529  
C898     C      0.865550000000     0.865070000000     0.383680000000    -0.0559218  
C899     C      0.897370000000     0.897660000000     0.402900000000     0.0621134  
C900     C      0.938130000000     0.904060000000     0.429660000000    -0.0294905  
C901     C      0.874260000000     0.871940000000     0.357510000000     0.0625693  
C902     C      0.833400000000     0.865830000000     0.330860000000    -0.0333603  
C903     C      0.894550000000     0.891750000000     0.354280000000    -0.0522969  
C904     C      0.822920000000     0.856050000000     0.303370000000     0.0141138  
C905     C      0.858670000000     0.818570000000     0.305440000000    -0.00757054 
C906     C      0.877080000000     0.877860000000     0.406120000000    -0.0531838  
C907     C      0.833900000000     0.873320000000     0.281690000000     0.056899   
C908     C      0.941880000000     0.613200000000     0.423870000000    -0.029143   
C909     C      0.828370000000     0.657590000000     0.338360000000    -0.0295742  
C910     C      0.843720000000     0.713930000000     0.327790000000    -0.00819088 
C911     C      0.806850000000     0.677770000000     0.328570000000    -0.00811681 
C912     C      0.868320000000     0.653190000000     0.395570000000    -0.0534726  
C913     C      0.902150000000     0.618000000000     0.366480000000    -0.0530895  
C914     C      0.867630000000     0.653500000000     0.367380000000     0.0621797  
C915     C      0.863740000000     0.692270000000     0.337610000000    -0.0294374  
C916     C      0.902810000000     0.617660000000     0.394670000000     0.0630298  
C917     C      0.906250000000     0.578830000000     0.424410000000    -0.0335944  
C918     C      0.885750000000     0.635440000000     0.409200000000    -0.0562112  
C919     C      0.925950000000     0.556830000000     0.434510000000     0.0148474  
C920     C      0.963300000000     0.592890000000     0.433580000000    -0.00728728 
C921     C      0.884730000000     0.635760000000     0.352850000000    -0.055444   
C922     C      0.934230000000     0.538960000000     0.412140000000     0.0553685  
C923     C      0.689090000000     0.863190000000     0.334190000000    -0.0292099  
C924     C      0.577450000000     0.905420000000     0.423430000000    -0.0291923  
C925     C      0.602710000000     0.952570000000     0.449020000000    -0.0101764  
C926     C      0.566030000000     0.915810000000     0.450170000000    -0.00795212 
C927     C      0.639460000000     0.877510000000     0.405020000000    -0.0529924  
C928     C      0.626360000000     0.890360000000     0.351680000000    -0.0526625  
C929     C      0.619710000000     0.897390000000     0.399720000000     0.0627363  
C930     C      0.612270000000     0.940370000000     0.422340000000    -0.0278704  
C931     C      0.646240000000     0.870610000000     0.356990000000     0.0629976  
C932     C      0.654260000000     0.828170000000     0.333490000000    -0.0334294  
C933     C      0.652640000000     0.864150000000     0.383890000000    -0.0557944  
C934     C      0.664720000000     0.816440000000     0.306770000000     0.014509   
C935     C      0.701330000000     0.853380000000     0.307610000000    -0.00728959 
C936     C      0.613120000000     0.903680000000     0.372820000000    -0.0556051  
C937     C      0.647110000000     0.825340000000     0.284410000000     0.0578222  
C938     C      0.862780000000     0.827040000000     0.171270000000    -0.0295883  
C939     C      0.909670000000     0.944880000000     0.091900000000    -0.0291432  
C940     C      0.966350000000     0.930050000000     0.082200000000    -0.00929816 
C941     C      0.930210000000     0.966690000000     0.083250000000    -0.00903215 
C942     C      0.903670000000     0.902130000000     0.147400000000    -0.0520309  
C943     C      0.869080000000     0.869840000000     0.116030000000    -0.0530276  
C944     C      0.904620000000     0.904330000000     0.119270000000     0.0616882  
C945     C      0.944460000000     0.909590000000     0.090810000000    -0.0289078  
C946     C      0.868080000000     0.867690000000     0.144160000000     0.0629853  
C947     C      0.828530000000     0.862730000000     0.173040000000    -0.0343468  
C948     C      0.885610000000     0.884000000000     0.159820000000    -0.0558235  
C949     C      0.806260000000     0.842610000000     0.181960000000     0.0152192  
C950     C      0.842110000000     0.805270000000     0.179690000000    -0.00694727 
C951     C      0.887170000000     0.887940000000     0.103610000000    -0.0550713  
C952     C      0.788700000000     0.835370000000     0.158990000000     0.0528065  
C953     C      0.965850000000     0.966660000000     0.547800000000     0.3856     
C954     C      0.555430000000     0.554770000000     0.545730000000     0.38873    
C955     C      0.559230000000     0.962180000000     0.539190000000     0.393986   
C956     C      0.965560000000     0.554570000000     0.547380000000     0.387461   
C957     C      0.963450000000     0.556350000000     0.967760000000     0.397407   
C958     C      0.558800000000     0.960380000000     0.971810000000     0.395628   
C959     C      0.956990000000     0.958890000000     0.977120000000     0.393864   
C960     C      0.560920000000     0.563550000000     0.976450000000     0.394544   
C961     C      0.805880000000     0.804330000000     0.714460000000     0.387672   
C962     C      0.717900000000     0.714340000000     0.712780000000     0.38425    
C963     C      0.805400000000     0.714860000000     0.713550000000     0.385183   
C964     C      0.713560000000     0.807510000000     0.719210000000     0.392353   
C965     C      0.709980000000     0.808860000000     0.786310000000     0.396134   
C966     C      0.806920000000     0.713760000000     0.793800000000     0.395419   
C967     C      0.813860000000     0.810580000000     0.783880000000     0.394636   
C968     C      0.709200000000     0.706700000000     0.783260000000     0.392699   
C969     C      0.578950000000     0.611250000000     0.588950000000    -0.0282788  
C970     C      0.696550000000     0.657550000000     0.669190000000    -0.0294598  
C971     C      0.681800000000     0.714360000000     0.677840000000    -0.0091277  
C972     C      0.718320000000     0.678070000000     0.678010000000    -0.00870279 
C973     C      0.639740000000     0.635120000000     0.656710000000    -0.0545975  
C974     C      0.636310000000     0.633390000000     0.600470000000    -0.0561912  
C975     C      0.656430000000     0.652370000000     0.641130000000     0.0614401  
C976     C      0.661380000000     0.692470000000     0.669160000000    -0.0290674  
C977     C      0.619700000000     0.616060000000     0.616040000000     0.0636499  
C978     C      0.614350000000     0.576720000000     0.586960000000    -0.0340215  
C979     C      0.621610000000     0.617140000000     0.644190000000    -0.0528044  
C980     C      0.593970000000     0.554700000000     0.578010000000     0.0149024  
C981     C      0.556930000000     0.590840000000     0.580590000000    -0.00884159 
C982     C      0.654490000000     0.651320000000     0.612980000000    -0.0518937  
C983     C      0.586670000000     0.537110000000     0.600910000000     0.0556881  
C984     C      0.579670000000     0.617390000000     0.927670000000    -0.0294688  
C985     C      0.689200000000     0.653730000000     0.832460000000    -0.029547   
C986     C      0.663650000000     0.698210000000     0.802900000000    -0.00880689 
C987     C      0.700540000000     0.662130000000     0.804940000000    -0.00852543 
C988     C      0.627240000000     0.627520000000     0.854110000000    -0.0529435  
C989     C      0.641370000000     0.644820000000     0.905930000000    -0.052913   
C990     C      0.647120000000     0.647740000000     0.857300000000     0.06174    
C991     C      0.653950000000     0.688400000000     0.830530000000    -0.0291692  
C992     C      0.621520000000     0.624560000000     0.902740000000     0.0625462  
C993     C      0.615810000000     0.583610000000     0.929230000000    -0.033405   
C994     C      0.614520000000     0.615960000000     0.876560000000    -0.0559292  
C995     C      0.606270000000     0.572960000000     0.956740000000     0.0140585  
C996     C      0.568540000000     0.608470000000     0.955110000000    -0.00732273 
C997     C      0.654100000000     0.656380000000     0.883470000000    -0.055415   
C998     C      0.623660000000     0.583920000000     0.978360000000     0.0575104  
C999     C      0.579870000000     0.907820000000     0.587640000000    -0.0295492  
C1000    C      0.694870000000     0.862290000000     0.670300000000    -0.0295623  
C1001    C      0.670440000000     0.814220000000     0.695120000000    -0.0092864  
C1002    C      0.707270000000     0.851280000000     0.696280000000    -0.00673769 
C1003    C      0.631960000000     0.890600000000     0.656040000000    -0.0524148  
C1004    C      0.643170000000     0.880560000000     0.601700000000    -0.0524092  
C1005    C      0.651630000000     0.871240000000     0.648980000000     0.0637694  
C1006    C      0.660140000000     0.827390000000     0.669240000000    -0.0278007  
C1007    C      0.623410000000     0.899830000000     0.608750000000     0.0640883  
C1008    C      0.614050000000     0.943330000000     0.587920000000    -0.0340954  
C1009    C      0.617890000000     0.904860000000     0.636120000000    -0.0556187  
C1010    C      0.603490000000     0.955870000000     0.561690000000     0.0154989  
C1011    C      0.567090000000     0.918310000000     0.561620000000    -0.00622759 
C1012    C      0.657250000000     0.866310000000     0.621610000000    -0.0556047  
C1013    C      0.621720000000     0.948600000000     0.539230000000     0.0606271  
C1014    C      0.908810000000     0.576510000000     0.590320000000    -0.029173   
C1015    C      0.861820000000     0.693500000000     0.669980000000    -0.0293578  
C1016    C      0.804860000000     0.678990000000     0.678490000000    -0.00860557 
C1017    C      0.841300000000     0.715320000000     0.678450000000    -0.00879322 
C1018    C      0.869040000000     0.651680000000     0.614390000000    -0.0532695  
C1019    C      0.901810000000     0.618080000000     0.646350000000    -0.0530438  
C1020    C      0.867070000000     0.653230000000     0.642490000000     0.0619722  
C1021    C      0.826660000000     0.658450000000     0.670000000000    -0.0294314  
C1022    C      0.903740000000     0.616490000000     0.618260000000     0.0629171  
C1023    C      0.944370000000     0.611120000000     0.591100000000    -0.0333906  
C1024    C      0.887210000000     0.633510000000     0.602280000000    -0.0561193  
C1025    C      0.966210000000     0.590490000000     0.582450000000     0.0145628  
C1026    C      0.929110000000     0.554480000000     0.581900000000    -0.0076353  
C1027    C      0.883660000000     0.636280000000     0.658460000000    -0.0552711  
C1028    C      0.981890000000     0.581270000000     0.606040000000     0.052847   
C1029    C      0.867410000000     0.829940000000     0.832840000000    -0.0293229  
C1030    C      0.903820000000     0.939660000000     0.927730000000    -0.0303014  
C1031    C      0.948020000000     0.913570000000     0.957310000000    -0.0081086  
C1032    C      0.912320000000     0.950860000000     0.955280000000    -0.0074814  
C1033    C      0.906070000000     0.904540000000     0.876720000000    -0.0551693  
C1034    C      0.865550000000     0.865070000000     0.883690000000    -0.0558454  
C1035    C      0.897370000000     0.897660000000     0.902900000000     0.0621602  
C1036    C      0.938130000000     0.904060000000     0.929660000000    -0.0294578  
C1037    C      0.874260000000     0.871940000000     0.857510000000     0.062532   
C1038    C      0.833400000000     0.865830000000     0.830870000000    -0.0334151  
C1039    C      0.894550000000     0.891750000000     0.854280000000    -0.0522665  
C1040    C      0.822920000000     0.856050000000     0.803370000000     0.0141217  
C1041    C      0.858670000000     0.818570000000     0.805440000000    -0.00756426 
C1042    C      0.877080000000     0.877860000000     0.906120000000    -0.0531538  
C1043    C      0.833900000000     0.873320000000     0.781690000000     0.0568854  
C1044    C      0.941880000000     0.613200000000     0.923870000000    -0.0291781  
C1045    C      0.828370000000     0.657590000000     0.838360000000    -0.0295615  
C1046    C      0.843720000000     0.713930000000     0.827790000000    -0.00822272 
C1047    C      0.806850000000     0.677770000000     0.828560000000    -0.00809285 
C1048    C      0.868320000000     0.653190000000     0.895570000000    -0.0533752  
C1049    C      0.902150000000     0.618000000000     0.866480000000    -0.053112   
C1050    C      0.867630000000     0.653500000000     0.867380000000     0.0621488  
C1051    C      0.863740000000     0.692270000000     0.837610000000    -0.0293652  
C1052    C      0.902810000000     0.617660000000     0.894670000000     0.0630874  
C1053    C      0.906250000000     0.578830000000     0.924410000000    -0.03361    
C1054    C      0.885750000000     0.635440000000     0.909200000000    -0.0562647  
C1055    C      0.925950000000     0.556830000000     0.934510000000     0.0148524  
C1056    C      0.963300000000     0.592890000000     0.933590000000    -0.00723065 
C1057    C      0.884730000000     0.635760000000     0.852850000000    -0.0554071  
C1058    C      0.934230000000     0.538960000000     0.912140000000     0.0553895  
C1059    C      0.689090000000     0.863190000000     0.834200000000    -0.0292814  
C1060    C      0.577450000000     0.905420000000     0.923420000000    -0.029174   
C1061    C      0.602710000000     0.952570000000     0.949020000000    -0.0102245  
C1062    C      0.566030000000     0.915810000000     0.950160000000    -0.00796591 
C1063    C      0.639460000000     0.877510000000     0.905020000000    -0.0530379  
C1064    C      0.626360000000     0.890360000000     0.851680000000    -0.0526347  
C1065    C      0.619710000000     0.897390000000     0.899720000000     0.062818   
C1066    C      0.612270000000     0.940370000000     0.922340000000    -0.0278333  
C1067    C      0.646240000000     0.870610000000     0.856990000000     0.0629838  
C1068    C      0.654260000000     0.828170000000     0.833490000000    -0.0334501  
C1069    C      0.652640000000     0.864150000000     0.883890000000    -0.0557133  
C1070    C      0.664720000000     0.816440000000     0.806770000000     0.0145156  
C1071    C      0.701330000000     0.853380000000     0.807610000000    -0.00727259 
C1072    C      0.613120000000     0.903680000000     0.872820000000    -0.0556311  
C1073    C      0.647110000000     0.825340000000     0.784410000000     0.0578204  
C1074    C      0.862780000000     0.827040000000     0.671270000000    -0.029613   
C1075    C      0.909670000000     0.944880000000     0.591900000000    -0.029189   
C1076    C      0.966350000000     0.930050000000     0.582200000000    -0.00925399 
C1077    C      0.930210000000     0.966690000000     0.583240000000    -0.00894348 
C1078    C      0.903670000000     0.902130000000     0.647400000000    -0.0520459  
C1079    C      0.869080000000     0.869840000000     0.616030000000    -0.0529744  
C1080    C      0.904620000000     0.904330000000     0.619270000000     0.0617186  
C1081    C      0.944460000000     0.909590000000     0.590810000000    -0.0289352  
C1082    C      0.868080000000     0.867690000000     0.644160000000     0.0630129  
C1083    C      0.828530000000     0.862730000000     0.673040000000    -0.0343771  
C1084    C      0.885610000000     0.884000000000     0.659810000000    -0.0557673  
C1085    C      0.806260000000     0.842610000000     0.681960000000     0.0152261  
C1086    C      0.842110000000     0.805270000000     0.679690000000    -0.00694483 
C1087    C      0.887170000000     0.887940000000     0.603610000000    -0.0550436  
C1088    C      0.788700000000     0.835370000000     0.658990000000     0.0528503  
Co1      Co     0.469340000000     0.010340000000     0.006380000000     0.833994   
Co2      Co     0.049910000000     0.510700000000     0.504420000000     0.83744    
Co3      Co     0.509490000000     0.470380000000     0.005670000000     0.83105    
Co4      Co     0.509840000000     0.050640000000     0.506250000000     0.832697   
Co5      Co     0.261310000000     0.299250000000     0.255380000000     0.835345   
Co6      Co     0.261140000000     0.218710000000     0.254630000000     0.834325   
Co7      Co     0.301380000000     0.259280000000     0.254400000000     0.832364   
Co8      Co     0.221120000000     0.258720000000     0.254120000000     0.832523   
Co9      Co     0.469340000000     0.010340000000     0.506380000000     0.836621   
Co10     Co     0.049910000000     0.510700000000     0.004420000000     0.834859   
Co11     Co     0.509490000000     0.470380000000     0.505670000000     0.833596   
Co12     Co     0.509840000000     0.050640000000     0.006250000000     0.830158   
Co13     Co     0.261310000000     0.299250000000     0.755380000000     0.835342   
Co14     Co     0.261140000000     0.218710000000     0.754630000000     0.834313   
Co15     Co     0.301380000000     0.259280000000     0.754400000000     0.832351   
Co16     Co     0.221120000000     0.258720000000     0.754120000000     0.832509   
Co17     Co     0.469340000000     0.510340000000     0.006380000000     0.834607   
Co18     Co     0.049910000000     0.010700000000     0.504420000000     0.836838   
Co19     Co     0.509490000000     0.970380000000     0.005670000000     0.831488   
Co20     Co     0.509840000000     0.550640000000     0.506250000000     0.832631   
Co21     Co     0.261310000000     0.799250000000     0.255380000000     0.835343   
Co22     Co     0.261140000000     0.718710000000     0.254630000000     0.834328   
Co23     Co     0.301380000000     0.759280000000     0.254400000000     0.83236    
Co24     Co     0.221120000000     0.758720000000     0.254120000000     0.832521   
Co25     Co     0.469340000000     0.510340000000     0.506380000000     0.837235   
Co26     Co     0.049910000000     0.010700000000     0.004420000000     0.83426    
Co27     Co     0.509490000000     0.970380000000     0.505670000000     0.834029   
Co28     Co     0.509840000000     0.550640000000     0.006250000000     0.830091   
Co29     Co     0.261310000000     0.799250000000     0.755380000000     0.83534    
Co30     Co     0.261140000000     0.718710000000     0.754630000000     0.834315   
Co31     Co     0.301380000000     0.759280000000     0.754400000000     0.832347   
Co32     Co     0.221120000000     0.758720000000     0.754120000000     0.832506   
Co33     Co     0.969340000000     0.010340000000     0.006380000000     0.834456   
Co34     Co     0.549910000000     0.510700000000     0.504420000000     0.837364   
Co35     Co     0.009490000000     0.470380000000     0.005670000000     0.830235   
Co36     Co     0.009840000000     0.050640000000     0.506250000000     0.831913   
Co37     Co     0.761310000000     0.299250000000     0.255380000000     0.835398   
Co38     Co     0.761140000000     0.218710000000     0.254630000000     0.834378   
Co39     Co     0.801390000000     0.259280000000     0.254400000000     0.832502   
Co40     Co     0.721110000000     0.258720000000     0.254120000000     0.832676   
Co41     Co     0.969340000000     0.010340000000     0.506380000000     0.837077   
Co42     Co     0.549910000000     0.510700000000     0.004420000000     0.834782   
Co43     Co     0.009490000000     0.470380000000     0.505670000000     0.832779   
Co44     Co     0.009840000000     0.050640000000     0.006250000000     0.829376   
Co45     Co     0.761310000000     0.299250000000     0.755380000000     0.835395   
Co46     Co     0.761140000000     0.218710000000     0.754630000000     0.834365   
Co47     Co     0.801390000000     0.259280000000     0.754400000000     0.832489   
Co48     Co     0.721110000000     0.258720000000     0.754120000000     0.832661   
Co49     Co     0.969340000000     0.510340000000     0.006380000000     0.835069   
Co50     Co     0.549910000000     0.010700000000     0.504420000000     0.83676    
Co51     Co     0.009490000000     0.970380000000     0.005670000000     0.830673   
Co52     Co     0.009840000000     0.550640000000     0.506250000000     0.831846   
Co53     Co     0.761310000000     0.799250000000     0.255380000000     0.835397   
Co54     Co     0.761140000000     0.718710000000     0.254630000000     0.83438    
Co55     Co     0.801390000000     0.759280000000     0.254400000000     0.832498   
Co56     Co     0.721110000000     0.758720000000     0.254120000000     0.832674   
Co57     Co     0.969340000000     0.510340000000     0.506380000000     0.837693   
Co58     Co     0.549910000000     0.010700000000     0.004420000000     0.834181   
Co59     Co     0.009490000000     0.970380000000     0.505670000000     0.833212   
Co60     Co     0.009840000000     0.550640000000     0.006250000000     0.829308   
Co61     Co     0.761310000000     0.799250000000     0.755380000000     0.835394   
Co62     Co     0.761140000000     0.718710000000     0.754630000000     0.834368   
Co63     Co     0.801390000000     0.759280000000     0.754400000000     0.832485   
Co64     Co     0.721110000000     0.758720000000     0.754120000000     0.832659   
H1       H      0.167110000000     0.164510000000     0.100730000000     0.046485   
H2       H      0.069330000000     0.127070000000     0.101880000000     0.0377747  
H3       H      0.131440000000     0.067040000000     0.098250000000     0.0422793  
H4       H      0.188770000000     0.225520000000     0.159600000000     0.0397923  
H5       H      0.046300000000     0.083630000000     0.099030000000     0.051264   
H6       H      0.206570000000     0.141500000000     0.156840000000     0.0362341  
H7       H      0.145210000000     0.202340000000     0.156820000000     0.0361599  
H8       H      0.233090000000     0.167510000000     0.191400000000     0.0471596  
H9       H      0.104500000000     0.041670000000     0.062930000000     0.04859    
H10      H      0.135200000000     0.133050000000     0.078700000000     0.045393   
H11      H      0.041650000000     0.101590000000     0.067930000000     0.0495583  
H12      H      0.140720000000     0.135590000000     0.178480000000     0.0429624  
H13      H      0.087190000000     0.121420000000     0.070620000000     0.0412867  
H14      H      0.171120000000     0.229190000000     0.191060000000     0.0484665  
H15      H      0.187680000000     0.147710000000     0.187410000000     0.040208   
H16      H      0.151620000000     0.183570000000     0.187410000000     0.0403911  
H17      H      0.108950000000     0.103990000000     0.156440000000     0.0502091  
H18      H      0.123240000000     0.086370000000     0.068660000000     0.0457188  
H19      H      0.229640000000     0.185020000000     0.159860000000     0.0385611  
H20      H      0.169370000000     0.171980000000     0.386500000000     0.0421244  
H21      H      0.075150000000     0.139430000000     0.424950000000     0.0361407  
H22      H      0.138190000000     0.080310000000     0.427140000000     0.0408844  
H23      H      0.150520000000     0.188840000000     0.287170000000     0.0412895  
H24      H      0.076210000000     0.122760000000     0.470750000000     0.0443346  
H25      H      0.193150000000     0.131610000000     0.335360000000     0.0361843  
H26      H      0.131610000000     0.192140000000     0.332050000000     0.0361604  
H27      H      0.223080000000     0.159770000000     0.305350000000     0.0462854  
H28      H      0.109010000000     0.050490000000     0.456640000000     0.0459368  
H29      H      0.147030000000     0.151580000000     0.425930000000     0.0484004  
H30      H      0.045950000000     0.110230000000     0.454680000000     0.0459221  
H31      H      0.121640000000     0.120690000000     0.334120000000     0.0462401  
H32      H      0.068910000000     0.105900000000     0.411510000000     0.0386542  
H33      H      0.160740000000     0.220630000000     0.301830000000     0.0476138  
H34      H      0.200220000000     0.165090000000     0.348540000000     0.0386964  
H35      H      0.164300000000     0.200500000000     0.346510000000     0.0387953  
H36      H      0.099330000000     0.100280000000     0.373510000000     0.042461   
H37      H      0.105620000000     0.071530000000     0.413130000000     0.0398495  
H38      H      0.192440000000     0.147950000000     0.289420000000     0.0409248  
H39      H      0.172400000000     0.351450000000     0.115690000000     0.0440604  
H40      H      0.076420000000     0.385450000000     0.088790000000     0.0362799  
H41      H      0.136250000000     0.447730000000     0.090140000000     0.0425646  
H42      H      0.156550000000     0.319900000000     0.211900000000     0.0520792  
H43      H      0.073590000000     0.404940000000     0.044720000000     0.0445105  
H44      H      0.198710000000     0.384620000000     0.169440000000     0.0385729  
H45      H      0.137840000000     0.323460000000     0.167570000000     0.0373185  
H46      H      0.229860000000     0.352630000000     0.194640000000     0.0501695  
H47      H      0.104200000000     0.478400000000     0.063990000000     0.0477899  
H48      H      0.147570000000     0.376570000000     0.080680000000     0.0493925  
H49      H      0.044550000000     0.416470000000     0.063430000000     0.0462127  
H50      H      0.127500000000     0.394540000000     0.177050000000     0.0493522  
H51      H      0.069520000000     0.417480000000     0.105190000000     0.0392312  
H52      H      0.169300000000     0.291730000000     0.192740000000     0.0478579  
H53      H      0.205180000000     0.352680000000     0.152710000000     0.0431107  
H54      H      0.170370000000     0.317710000000     0.151630000000     0.0385903  
H55      H      0.102700000000     0.419700000000     0.142010000000     0.0446139  
H56      H      0.103450000000     0.453100000000     0.105260000000     0.044238   
H57      H      0.200940000000     0.364580000000     0.213300000000     0.0459199  
H58      H      0.382570000000     0.137110000000     0.180220000000     0.0427485  
H59      H      0.392330000000     0.066760000000     0.102340000000     0.0363487  
H60      H      0.453970000000     0.127440000000     0.103490000000     0.0401049  
H61      H      0.293850000000     0.186010000000     0.160180000000     0.0387058  
H62      H      0.435560000000     0.043050000000     0.100150000000     0.0433079  
H63      H      0.377980000000     0.203360000000     0.157610000000     0.0357723  
H64      H      0.316760000000     0.142330000000     0.157640000000     0.0358148  
H65      H      0.351860000000     0.230300000000     0.191590000000     0.0474892  
H66      H      0.480620000000     0.101220000000     0.068810000000     0.0446752  
H67      H      0.414430000000     0.105150000000     0.158870000000     0.0491749  
H68      H      0.418480000000     0.039890000000     0.068380000000     0.0470782  
H69      H      0.356430000000     0.164610000000     0.101870000000     0.0455704  
H70      H      0.399490000000     0.085570000000     0.071930000000     0.0390072  
H71      H      0.289860000000     0.168460000000     0.191650000000     0.0472869  
H72      H      0.371550000000     0.184770000000     0.188320000000     0.0399473  
H73      H      0.335380000000     0.148730000000     0.188350000000     0.0399369  
H74      H      0.388350000000     0.132730000000     0.080530000000     0.0418298  
H75      H      0.435840000000     0.120950000000     0.072720000000     0.0396253  
H76      H      0.334270000000     0.226300000000     0.160130000000     0.0394577  
H77      H      0.370210000000     0.372330000000     0.426120000000     0.0457271  
H78      H      0.389480000000     0.325560000000     0.335700000000     0.0362182  
H79      H      0.329960000000     0.388180000000     0.332790000000     0.0410074  
H80      H      0.438480000000     0.400510000000     0.473000000000     0.0402521  
H81      H      0.373010000000     0.326190000000     0.289810000000     0.0447429  
H82      H      0.381720000000     0.443850000000     0.424800000000     0.0376973  
H83      H      0.441640000000     0.381720000000     0.428080000000     0.0358357  
H84      H      0.410280000000     0.473400000000     0.454870000000     0.0487947  
H85      H      0.300400000000     0.358660000000     0.303350000000     0.0449869  
H86      H      0.349850000000     0.349910000000     0.386760000000     0.0417525  
H87      H      0.360540000000     0.296020000000     0.306050000000     0.0458851  
H88      H      0.421750000000     0.419740000000     0.373670000000     0.0446174  
H89      H      0.355870000000     0.319250000000     0.349020000000     0.0378575  
H90      H      0.470440000000     0.410410000000     0.458400000000     0.0470898  
H91      H      0.415350000000     0.450550000000     0.411680000000     0.0437576  
H92      H      0.450370000000     0.414310000000     0.413710000000     0.0405018  
H93      H      0.401390000000     0.397290000000     0.334280000000     0.0495751  
H94      H      0.321280000000     0.355700000000     0.346980000000     0.0392794  
H95      H      0.397980000000     0.442950000000     0.470770000000     0.0407327  
H96      H      0.384560000000     0.135620000000     0.331050000000     0.0426291  
H97      H      0.452230000000     0.128850000000     0.411280000000     0.035958   
H98      H      0.389670000000     0.069170000000     0.412390000000     0.0404955  
H99      H      0.336830000000     0.226130000000     0.345380000000     0.0394183  
H100     H      0.475150000000     0.085620000000     0.415890000000     0.0437627  
H101     H      0.318130000000     0.141990000000     0.351090000000     0.036102   
H102     H      0.379830000000     0.202470000000     0.349800000000     0.0354891  
H103     H      0.292380000000     0.166760000000     0.315200000000     0.0465193  
H104     H      0.414630000000     0.044050000000     0.449240000000     0.0440692  
H105     H      0.415170000000     0.104420000000     0.355090000000     0.0489998  
H106     H      0.477690000000     0.103770000000     0.447140000000     0.0462428  
H107     H      0.355270000000     0.166730000000     0.406960000000     0.0455167  
H108     H      0.432690000000     0.123590000000     0.441630000000     0.0384133  
H109     H      0.354700000000     0.227880000000     0.313870000000     0.0463778  
H110     H      0.337560000000     0.147130000000     0.320640000000     0.0396193  
H111     H      0.373670000000     0.182520000000     0.319890000000     0.0392992  
H112     H      0.385890000000     0.135560000000     0.431000000000     0.0417432  
H113     H      0.396540000000     0.088770000000     0.442150000000     0.0392766  
H114     H      0.295150000000     0.185260000000     0.346270000000     0.0395607  
H115     H      0.097890000000     0.418910000000     0.368200000000     0.0428814  
H116     H      0.192850000000     0.385470000000     0.335990000000     0.0370037  
H117     H      0.131970000000     0.324140000000     0.335410000000     0.0402998  
H118     H      0.116560000000     0.445490000000     0.465290000000     0.0520721  
H119     H      0.194060000000     0.366900000000     0.291140000000     0.0455035  
H120     H      0.073610000000     0.383120000000     0.422190000000     0.0361783  
H121     H      0.134540000000     0.444260000000     0.420250000000     0.0377933  
H122     H      0.043450000000     0.413820000000     0.449630000000     0.0461095  
H123     H      0.163160000000     0.293880000000     0.308070000000     0.0435512  
H124     H      0.121210000000     0.395470000000     0.331080000000     0.049279   
H125     H      0.223860000000     0.355590000000     0.308820000000     0.0465599  
H126     H      0.144670000000     0.372470000000     0.425630000000     0.0475657  
H127     H      0.199650000000     0.352830000000     0.351210000000     0.0380666  
H128     H      0.104630000000     0.475100000000     0.447740000000     0.0490537  
H129     H      0.066440000000     0.415450000000     0.406490000000     0.0387817  
H130     H      0.101610000000     0.450800000000     0.405420000000     0.0386124  
H131     H      0.167880000000     0.348910000000     0.388510000000     0.0420294  
H132     H      0.164580000000     0.317440000000     0.350430000000     0.0386204  
H133     H      0.073640000000     0.402540000000     0.466680000000     0.0438486  
H134     H      0.387510000000     0.389160000000     0.081840000000     0.042312   
H135     H      0.378550000000     0.317230000000     0.158390000000     0.0362025  
H136     H      0.319040000000     0.379860000000     0.161680000000     0.0420639  
H137     H      0.477800000000     0.436640000000     0.100400000000     0.0409206  
H138     H      0.334880000000     0.294520000000     0.161320000000     0.0419408  
H139     H      0.393810000000     0.454730000000     0.104650000000     0.0366005  
H140     H      0.454430000000     0.393180000000     0.102730000000     0.0359788  
H141     H      0.419530000000     0.481800000000     0.070350000000     0.0476472  
H142     H      0.293230000000     0.353310000000     0.196910000000     0.0478551  
H143     H      0.355750000000     0.357440000000     0.103710000000     0.0483472  
H144     H      0.352720000000     0.290040000000     0.192510000000     0.0473729  
H145     H      0.416980000000     0.414550000000     0.159720000000     0.0475905  
H146     H      0.373020000000     0.335220000000     0.189590000000     0.0417452  
H147     H      0.480970000000     0.419570000000     0.068580000000     0.0477577  
H148     H      0.399530000000     0.436430000000     0.073660000000     0.0399704  
H149     H      0.435260000000     0.400220000000     0.072510000000     0.0395982  
H150     H      0.385310000000     0.382750000000     0.181580000000     0.0457744  
H151     H      0.338210000000     0.371570000000     0.191360000000     0.0459881  
H152     H      0.437520000000     0.477540000000     0.101530000000     0.0406719  
H153     H      0.167110000000     0.164510000000     0.600730000000     0.0466287  
H154     H      0.069330000000     0.127070000000     0.601880000000     0.0378433  
H155     H      0.131440000000     0.067040000000     0.598250000000     0.0423584  
H156     H      0.188770000000     0.225520000000     0.659600000000     0.0398478  
H157     H      0.046300000000     0.083630000000     0.599030000000     0.0512415  
H158     H      0.206570000000     0.141500000000     0.656840000000     0.0362737  
H159     H      0.145210000000     0.202340000000     0.656820000000     0.0362019  
H160     H      0.233090000000     0.167510000000     0.691400000000     0.047173   
H161     H      0.104500000000     0.041670000000     0.562930000000     0.0487525  
H162     H      0.135200000000     0.133050000000     0.578700000000     0.0455865  
H163     H      0.041650000000     0.101590000000     0.567930000000     0.0496891  
H164     H      0.140720000000     0.135590000000     0.678480000000     0.0429554  
H165     H      0.087190000000     0.121420000000     0.570620000000     0.0414944  
H166     H      0.171120000000     0.229190000000     0.691060000000     0.048477   
H167     H      0.187680000000     0.147710000000     0.687410000000     0.0402007  
H168     H      0.151620000000     0.183570000000     0.687410000000     0.0403868  
H169     H      0.108950000000     0.103990000000     0.656440000000     0.0502023  
H170     H      0.123240000000     0.086370000000     0.568660000000     0.0459488  
H171     H      0.229640000000     0.185020000000     0.659870000000     0.0386303  
H172     H      0.169370000000     0.171980000000     0.886500000000     0.0421889  
H173     H      0.075150000000     0.139430000000     0.924950000000     0.0362284  
H174     H      0.138190000000     0.080310000000     0.927140000000     0.0409623  
H175     H      0.150520000000     0.188840000000     0.787170000000     0.0412825  
H176     H      0.076210000000     0.122760000000     0.970750000000     0.0446068  
H177     H      0.193150000000     0.131610000000     0.835360000000     0.0362065  
H178     H      0.131610000000     0.192140000000     0.832060000000     0.0361767  
H179     H      0.223080000000     0.159770000000     0.805350000000     0.0462885  
H180     H      0.109010000000     0.050490000000     0.956640000000     0.0460685  
H181     H      0.147030000000     0.151580000000     0.925930000000     0.0485532  
H182     H      0.045950000000     0.110230000000     0.954680000000     0.0460525  
H183     H      0.121640000000     0.120690000000     0.834120000000     0.0462228  
H184     H      0.068910000000     0.105900000000     0.911510000000     0.0386551  
H185     H      0.160740000000     0.220630000000     0.801830000000     0.0476164  
H186     H      0.200220000000     0.165090000000     0.848540000000     0.0387353  
H187     H      0.164300000000     0.200500000000     0.846510000000     0.038829   
H188     H      0.099330000000     0.100280000000     0.873510000000     0.0424558  
H189     H      0.105620000000     0.071530000000     0.913130000000     0.0398566  
H190     H      0.192440000000     0.147950000000     0.789420000000     0.0409163  
H191     H      0.172400000000     0.351450000000     0.615690000000     0.0441365  
H192     H      0.076420000000     0.385450000000     0.588790000000     0.0363591  
H193     H      0.136250000000     0.447730000000     0.590140000000     0.042629   
H194     H      0.156550000000     0.319900000000     0.711900000000     0.0520732  
H195     H      0.073590000000     0.404940000000     0.544720000000     0.0447983  
H196     H      0.198710000000     0.384620000000     0.669440000000     0.0385957  
H197     H      0.137840000000     0.323460000000     0.667570000000     0.0373495  
H198     H      0.229860000000     0.352630000000     0.694640000000     0.0501793  
H199     H      0.104200000000     0.478400000000     0.563990000000     0.0478643  
H200     H      0.147570000000     0.376570000000     0.580680000000     0.0495626  
H201     H      0.044550000000     0.416470000000     0.563430000000     0.0463218  
H202     H      0.127500000000     0.394540000000     0.677050000000     0.049336   
H203     H      0.069520000000     0.417480000000     0.605200000000     0.0391996  
H204     H      0.169300000000     0.291730000000     0.692740000000     0.047874   
H205     H      0.205180000000     0.352680000000     0.652710000000     0.0431523  
H206     H      0.170370000000     0.317710000000     0.651630000000     0.0386419  
H207     H      0.102700000000     0.419700000000     0.642010000000     0.0446122  
H208     H      0.103450000000     0.453100000000     0.605260000000     0.0442306  
H209     H      0.200940000000     0.364580000000     0.713300000000     0.0459211  
H210     H      0.382570000000     0.137110000000     0.680220000000     0.0427384  
H211     H      0.392330000000     0.066760000000     0.602340000000     0.0364155  
H212     H      0.453970000000     0.127440000000     0.603490000000     0.0401696  
H213     H      0.293850000000     0.186010000000     0.660180000000     0.0387574  
H214     H      0.435560000000     0.043050000000     0.600150000000     0.043289   
H215     H      0.377980000000     0.203360000000     0.657610000000     0.035814   
H216     H      0.316760000000     0.142330000000     0.657640000000     0.0358563  
H217     H      0.351860000000     0.230300000000     0.691590000000     0.0474896  
H218     H      0.480620000000     0.101220000000     0.568810000000     0.0447964  
H219     H      0.414430000000     0.105150000000     0.658870000000     0.0491738  
H220     H      0.418480000000     0.039890000000     0.568380000000     0.0471995  
H221     H      0.356430000000     0.164610000000     0.601870000000     0.0457084  
H222     H      0.399490000000     0.085570000000     0.571930000000     0.0391822  
H223     H      0.289860000000     0.168460000000     0.691650000000     0.0472863  
H224     H      0.371550000000     0.184770000000     0.688320000000     0.0399407  
H225     H      0.335380000000     0.148730000000     0.688350000000     0.0399301  
H226     H      0.388350000000     0.132730000000     0.580530000000     0.0419876  
H227     H      0.435840000000     0.120950000000     0.572720000000     0.0397964  
H228     H      0.334270000000     0.226300000000     0.660130000000     0.0395099  
H229     H      0.370210000000     0.372330000000     0.926120000000     0.0458992  
H230     H      0.389480000000     0.325560000000     0.835700000000     0.0362411  
H231     H      0.329960000000     0.388180000000     0.832790000000     0.0410399  
H232     H      0.438480000000     0.400510000000     0.973000000000     0.0405675  
H233     H      0.373010000000     0.326190000000     0.789810000000     0.044734   
H234     H      0.381720000000     0.443850000000     0.924800000000     0.0377857  
H235     H      0.441640000000     0.381720000000     0.928080000000     0.0359327  
H236     H      0.410280000000     0.473400000000     0.954870000000     0.0489377  
H237     H      0.300400000000     0.358660000000     0.803350000000     0.0449925  
H238     H      0.349850000000     0.349910000000     0.886760000000     0.041819   
H239     H      0.360540000000     0.296020000000     0.806050000000     0.0458898  
H240     H      0.421750000000     0.419740000000     0.873670000000     0.0446193  
H241     H      0.355870000000     0.319250000000     0.849020000000     0.0378999  
H242     H      0.470440000000     0.410410000000     0.958400000000     0.0472481  
H243     H      0.415350000000     0.450550000000     0.911680000000     0.0437573  
H244     H      0.450370000000     0.414310000000     0.913710000000     0.0405042  
H245     H      0.401390000000     0.397290000000     0.834280000000     0.0495603  
H246     H      0.321280000000     0.355700000000     0.846980000000     0.0393384  
H247     H      0.397980000000     0.442950000000     0.970770000000     0.0410343  
H248     H      0.384560000000     0.135620000000     0.831050000000     0.042615   
H249     H      0.452230000000     0.128850000000     0.911280000000     0.0360248  
H250     H      0.389670000000     0.069170000000     0.912390000000     0.0405619  
H251     H      0.336830000000     0.226130000000     0.845380000000     0.0394711  
H252     H      0.475150000000     0.085620000000     0.915890000000     0.0437502  
H253     H      0.318130000000     0.141990000000     0.851090000000     0.0361344  
H254     H      0.379830000000     0.202470000000     0.849800000000     0.035508   
H255     H      0.292380000000     0.166760000000     0.815200000000     0.0465167  
H256     H      0.414630000000     0.044050000000     0.949240000000     0.0442251  
H257     H      0.415170000000     0.104420000000     0.855090000000     0.0489988  
H258     H      0.477690000000     0.103770000000     0.947140000000     0.046369   
H259     H      0.355270000000     0.166730000000     0.906960000000     0.0456293  
H260     H      0.432690000000     0.123590000000     0.941630000000     0.0385962  
H261     H      0.354700000000     0.227880000000     0.813870000000     0.0463884  
H262     H      0.337560000000     0.147130000000     0.820640000000     0.0396129  
H263     H      0.373670000000     0.182520000000     0.819880000000     0.0392681  
H264     H      0.385890000000     0.135560000000     0.930990000000     0.0419497  
H265     H      0.396540000000     0.088770000000     0.942150000000     0.0394564  
H266     H      0.295150000000     0.185260000000     0.846270000000     0.0395974  
H267     H      0.097890000000     0.418910000000     0.868200000000     0.0428838  
H268     H      0.192850000000     0.385470000000     0.835990000000     0.0370449  
H269     H      0.131970000000     0.324140000000     0.835410000000     0.0403241  
H270     H      0.116560000000     0.445490000000     0.965290000000     0.0524454  
H271     H      0.194060000000     0.366900000000     0.791140000000     0.0454994  
H272     H      0.073610000000     0.383120000000     0.922190000000     0.0362769  
H273     H      0.134540000000     0.444260000000     0.920250000000     0.0378867  
H274     H      0.043450000000     0.413820000000     0.949630000000     0.0462282  
H275     H      0.163160000000     0.293880000000     0.808070000000     0.0435515  
H276     H      0.121210000000     0.395470000000     0.831080000000     0.0492649  
H277     H      0.223860000000     0.355590000000     0.808820000000     0.0465669  
H278     H      0.144670000000     0.372470000000     0.925620000000     0.0477943  
H279     H      0.199650000000     0.352830000000     0.851210000000     0.0381347  
H280     H      0.104630000000     0.475100000000     0.947740000000     0.0491845  
H281     H      0.066440000000     0.415450000000     0.906480000000     0.0387767  
H282     H      0.101610000000     0.450800000000     0.905420000000     0.038606   
H283     H      0.167880000000     0.348910000000     0.888510000000     0.0421019  
H284     H      0.164580000000     0.317440000000     0.850430000000     0.0386644  
H285     H      0.073640000000     0.402540000000     0.966680000000     0.0441761  
H286     H      0.387510000000     0.389160000000     0.581840000000     0.0424816  
H287     H      0.378550000000     0.317230000000     0.658390000000     0.036252   
H288     H      0.319040000000     0.379860000000     0.661680000000     0.0421045  
H289     H      0.477800000000     0.436640000000     0.600400000000     0.040895   
H290     H      0.334880000000     0.294520000000     0.661320000000     0.0419868  
H291     H      0.393810000000     0.454730000000     0.604650000000     0.0366669  
H292     H      0.454430000000     0.393180000000     0.602730000000     0.0360469  
H293     H      0.419530000000     0.481800000000     0.570350000000     0.0477531  
H294     H      0.293230000000     0.353310000000     0.696910000000     0.0478534  
H295     H      0.355750000000     0.357440000000     0.603710000000     0.0484809  
H296     H      0.352720000000     0.290040000000     0.692510000000     0.0473768  
H297     H      0.416980000000     0.414550000000     0.659720000000     0.0475852  
H298     H      0.373020000000     0.335220000000     0.689590000000     0.0417452  
H299     H      0.480970000000     0.419570000000     0.568580000000     0.047879   
H300     H      0.399530000000     0.436430000000     0.573660000000     0.0401598  
H301     H      0.435260000000     0.400220000000     0.572510000000     0.0397893  
H302     H      0.385310000000     0.382750000000     0.681580000000     0.0457312  
H303     H      0.338210000000     0.371570000000     0.691360000000     0.0459881  
H304     H      0.437520000000     0.477540000000     0.601530000000     0.0406309  
H305     H      0.167110000000     0.664510000000     0.100730000000     0.0464845  
H306     H      0.069330000000     0.627070000000     0.101880000000     0.037771   
H307     H      0.131440000000     0.567040000000     0.098250000000     0.0423269  
H308     H      0.188770000000     0.725520000000     0.159600000000     0.0397819  
H309     H      0.046300000000     0.583630000000     0.099030000000     0.0512937  
H310     H      0.206570000000     0.641500000000     0.156840000000     0.036252   
H311     H      0.145210000000     0.702340000000     0.156820000000     0.0361618  
H312     H      0.233090000000     0.667510000000     0.191400000000     0.0471797  
H313     H      0.104500000000     0.541670000000     0.062930000000     0.0486555  
H314     H      0.135200000000     0.633050000000     0.078700000000     0.0453985  
H315     H      0.041650000000     0.601590000000     0.067930000000     0.0495683  
H316     H      0.140720000000     0.635580000000     0.178480000000     0.0429652  
H317     H      0.087190000000     0.621420000000     0.070620000000     0.0412788  
H318     H      0.171120000000     0.729190000000     0.191060000000     0.048455   
H319     H      0.187680000000     0.647710000000     0.187410000000     0.0402186  
H320     H      0.151620000000     0.683570000000     0.187410000000     0.0403976  
H321     H      0.108950000000     0.603990000000     0.156440000000     0.0502339  
H322     H      0.123240000000     0.586370000000     0.068660000000     0.0457372  
H323     H      0.229640000000     0.685020000000     0.159860000000     0.0385782  
H324     H      0.169370000000     0.671980000000     0.386500000000     0.0421256  
H325     H      0.075150000000     0.639430000000     0.424950000000     0.0361399  
H326     H      0.138190000000     0.580310000000     0.427140000000     0.0409599  
H327     H      0.150520000000     0.688840000000     0.287170000000     0.0412935  
H328     H      0.076210000000     0.622760000000     0.470750000000     0.0443291  
H329     H      0.193150000000     0.631610000000     0.335360000000     0.0362097  
H330     H      0.131610000000     0.692140000000     0.332050000000     0.0361597  
H331     H      0.223080000000     0.659770000000     0.305350000000     0.0462967  
H332     H      0.109010000000     0.550490000000     0.456640000000     0.0459985  
H333     H      0.147030000000     0.651580000000     0.425930000000     0.0484031  
H334     H      0.045950000000     0.610230000000     0.454680000000     0.0459231  
H335     H      0.121640000000     0.620690000000     0.334120000000     0.0462633  
H336     H      0.068910000000     0.605900000000     0.411510000000     0.0386705  
H337     H      0.160740000000     0.720630000000     0.301830000000     0.0476122  
H338     H      0.200220000000     0.665090000000     0.348540000000     0.0387017  
H339     H      0.164300000000     0.700500000000     0.346510000000     0.0387928  
H340     H      0.099330000000     0.600280000000     0.373510000000     0.0424874  
H341     H      0.105620000000     0.571530000000     0.413130000000     0.0399343  
H342     H      0.192440000000     0.647950000000     0.289420000000     0.0409426  
H343     H      0.172400000000     0.851450000000     0.115690000000     0.0440611  
H344     H      0.076420000000     0.885440000000     0.088790000000     0.0362568  
H345     H      0.136250000000     0.947730000000     0.090140000000     0.042616   
H346     H      0.156550000000     0.819900000000     0.211900000000     0.0520914  
H347     H      0.073590000000     0.904940000000     0.044720000000     0.0445083  
H348     H      0.198710000000     0.884620000000     0.169440000000     0.0386001  
H349     H      0.137840000000     0.823460000000     0.167570000000     0.0372825  
H350     H      0.229860000000     0.852630000000     0.194640000000     0.0501792  
H351     H      0.104200000000     0.978400000000     0.063990000000     0.047893   
H352     H      0.147570000000     0.876570000000     0.080680000000     0.049398   
H353     H      0.044550000000     0.916470000000     0.063430000000     0.046222   
H354     H      0.127500000000     0.894530000000     0.177050000000     0.0493834  
H355     H      0.069520000000     0.917470000000     0.105190000000     0.0392486  
H356     H      0.169300000000     0.791730000000     0.192740000000     0.0478668  
H357     H      0.205180000000     0.852680000000     0.152710000000     0.0431161  
H358     H      0.170370000000     0.817710000000     0.151630000000     0.0385527  
H359     H      0.102700000000     0.919700000000     0.142010000000     0.0446467  
H360     H      0.103450000000     0.953100000000     0.105260000000     0.0443025  
H361     H      0.200940000000     0.864580000000     0.213300000000     0.0459368  
H362     H      0.382570000000     0.637110000000     0.180220000000     0.0427616  
H363     H      0.392330000000     0.566760000000     0.102340000000     0.0363998  
H364     H      0.453970000000     0.627440000000     0.103490000000     0.0401041  
H365     H      0.293850000000     0.686010000000     0.160180000000     0.038708   
H366     H      0.435560000000     0.543050000000     0.100150000000     0.043393   
H367     H      0.377980000000     0.703360000000     0.157610000000     0.0357701  
H368     H      0.316760000000     0.642330000000     0.157640000000     0.0358356  
H369     H      0.351860000000     0.730300000000     0.191590000000     0.0474878  
H370     H      0.480620000000     0.601220000000     0.068810000000     0.0446745  
H371     H      0.414430000000     0.605150000000     0.158870000000     0.0492029  
H372     H      0.418480000000     0.539890000000     0.068380000000     0.0471685  
H373     H      0.356430000000     0.664610000000     0.101870000000     0.0455731  
H374     H      0.399490000000     0.585570000000     0.071930000000     0.0390254  
H375     H      0.289860000000     0.668460000000     0.191650000000     0.0472961  
H376     H      0.371550000000     0.684770000000     0.188320000000     0.0399498  
H377     H      0.335380000000     0.648730000000     0.188350000000     0.0399528  
H378     H      0.388350000000     0.632730000000     0.080530000000     0.0418356  
H379     H      0.435840000000     0.620950000000     0.072720000000     0.0396237  
H380     H      0.334270000000     0.726300000000     0.160130000000     0.0394556  
H381     H      0.370210000000     0.872330000000     0.426120000000     0.0457376  
H382     H      0.389480000000     0.825560000000     0.335700000000     0.0362169  
H383     H      0.329960000000     0.888180000000     0.332790000000     0.0410351  
H384     H      0.438480000000     0.900510000000     0.473000000000     0.0402492  
H385     H      0.373010000000     0.826180000000     0.289810000000     0.0447452  
H386     H      0.381720000000     0.943850000000     0.424800000000     0.0377845  
H387     H      0.441640000000     0.881720000000     0.428080000000     0.0358359  
H388     H      0.410280000000     0.973400000000     0.454870000000     0.0488769  
H389     H      0.300400000000     0.858660000000     0.303350000000     0.0449976  
H390     H      0.349850000000     0.849910000000     0.386760000000     0.0417533  
H391     H      0.360540000000     0.796020000000     0.306050000000     0.0458836  
H392     H      0.421750000000     0.919740000000     0.373670000000     0.0446498  
H393     H      0.355870000000     0.819250000000     0.349020000000     0.0378543  
H394     H      0.470440000000     0.910410000000     0.458400000000     0.0470931  
H395     H      0.415350000000     0.950550000000     0.411680000000     0.0438572  
H396     H      0.450370000000     0.914310000000     0.413710000000     0.040526   
H397     H      0.401390000000     0.897290000000     0.334280000000     0.0496025  
H398     H      0.321280000000     0.855700000000     0.346980000000     0.0392863  
H399     H      0.397980000000     0.942950000000     0.470770000000     0.040754   
H400     H      0.384560000000     0.635620000000     0.331050000000     0.0426426  
H401     H      0.452230000000     0.628850000000     0.411280000000     0.0359591  
H402     H      0.389670000000     0.569170000000     0.412390000000     0.0405381  
H403     H      0.336830000000     0.726130000000     0.345380000000     0.039416   
H404     H      0.475150000000     0.585620000000     0.415890000000     0.0437833  
H405     H      0.318130000000     0.641990000000     0.351090000000     0.0361225  
H406     H      0.379830000000     0.702470000000     0.349800000000     0.0354872  
H407     H      0.292380000000     0.666760000000     0.315200000000     0.0465294  
H408     H      0.414630000000     0.544050000000     0.449240000000     0.0441379  
H409     H      0.415170000000     0.604420000000     0.355090000000     0.0490258  
H410     H      0.477690000000     0.603770000000     0.447140000000     0.0462449  
H411     H      0.355270000000     0.666730000000     0.406960000000     0.045519   
H412     H      0.432690000000     0.623590000000     0.441630000000     0.038412   
H413     H      0.354700000000     0.727880000000     0.313870000000     0.0463764  
H414     H      0.337560000000     0.647130000000     0.320640000000     0.0396356  
H415     H      0.373670000000     0.682520000000     0.319890000000     0.0393023  
H416     H      0.385890000000     0.635560000000     0.431000000000     0.0417485  
H417     H      0.396540000000     0.588770000000     0.442150000000     0.0392942  
H418     H      0.295150000000     0.685260000000     0.346270000000     0.0395631  
H419     H      0.097890000000     0.918910000000     0.368200000000     0.0429132  
H420     H      0.192850000000     0.885470000000     0.335990000000     0.0370306  
H421     H      0.131970000000     0.824130000000     0.335410000000     0.0402863  
H422     H      0.116560000000     0.945490000000     0.465290000000     0.0521138  
H423     H      0.194060000000     0.866900000000     0.291140000000     0.045521   
H424     H      0.073610000000     0.883120000000     0.422190000000     0.0361791  
H425     H      0.134540000000     0.944260000000     0.420250000000     0.0378049  
H426     H      0.043450000000     0.913820000000     0.449630000000     0.0461204  
H427     H      0.163160000000     0.793880000000     0.308070000000     0.0435498  
H428     H      0.121210000000     0.895470000000     0.331080000000     0.0493041  
H429     H      0.223860000000     0.855590000000     0.308820000000     0.0465708  
H430     H      0.144670000000     0.872470000000     0.425630000000     0.0475706  
H431     H      0.199650000000     0.852830000000     0.351210000000     0.0380726  
H432     H      0.104630000000     0.975100000000     0.447740000000     0.0491524  
H433     H      0.066440000000     0.915450000000     0.406490000000     0.0388028  
H434     H      0.101610000000     0.950800000000     0.405420000000     0.0386264  
H435     H      0.167880000000     0.848910000000     0.388510000000     0.0420313  
H436     H      0.164580000000     0.817440000000     0.350430000000     0.0386131  
H437     H      0.073640000000     0.902540000000     0.466680000000     0.0438477  
H438     H      0.387510000000     0.889160000000     0.081840000000     0.0423193  
H439     H      0.378550000000     0.817230000000     0.158390000000     0.0362006  
H440     H      0.319040000000     0.879860000000     0.161680000000     0.0420872  
H441     H      0.477800000000     0.936630000000     0.100400000000     0.040957   
H442     H      0.334880000000     0.794520000000     0.161320000000     0.0419387  
H443     H      0.393810000000     0.954730000000     0.104650000000     0.0366569  
H444     H      0.454430000000     0.893180000000     0.102730000000     0.0359805  
H445     H      0.419530000000     0.981800000000     0.070350000000     0.0477445  
H446     H      0.293230000000     0.853310000000     0.196910000000     0.047865   
H447     H      0.355750000000     0.857440000000     0.103710000000     0.0483508  
H448     H      0.352720000000     0.790040000000     0.192510000000     0.0473714  
H449     H      0.416980000000     0.914550000000     0.159720000000     0.0476245  
H450     H      0.373020000000     0.835220000000     0.189590000000     0.0417476  
H451     H      0.480970000000     0.919570000000     0.068580000000     0.047763   
H452     H      0.399530000000     0.936430000000     0.073660000000     0.0399913  
H453     H      0.435260000000     0.900220000000     0.072510000000     0.0395964  
H454     H      0.385310000000     0.882750000000     0.181580000000     0.0457884  
H455     H      0.338210000000     0.871570000000     0.191360000000     0.0460031  
H456     H      0.437520000000     0.977540000000     0.101530000000     0.04077    
H457     H      0.167110000000     0.664510000000     0.600730000000     0.0466282  
H458     H      0.069330000000     0.627070000000     0.601880000000     0.0378396  
H459     H      0.131440000000     0.567040000000     0.598250000000     0.0424061  
H460     H      0.188770000000     0.725520000000     0.659600000000     0.0398374  
H461     H      0.046300000000     0.583630000000     0.599030000000     0.0512712  
H462     H      0.206570000000     0.641500000000     0.656840000000     0.0362916  
H463     H      0.145210000000     0.702340000000     0.656820000000     0.0362039  
H464     H      0.233090000000     0.667510000000     0.691400000000     0.0471931  
H465     H      0.104500000000     0.541670000000     0.562930000000     0.048818   
H466     H      0.135200000000     0.633050000000     0.578700000000     0.045592   
H467     H      0.041650000000     0.601590000000     0.567930000000     0.0496991  
H468     H      0.140720000000     0.635580000000     0.678480000000     0.0429582  
H469     H      0.087190000000     0.621420000000     0.570620000000     0.0414866  
H470     H      0.171120000000     0.729190000000     0.691060000000     0.0484655  
H471     H      0.187680000000     0.647710000000     0.687410000000     0.0402113  
H472     H      0.151620000000     0.683570000000     0.687410000000     0.0403932  
H473     H      0.108950000000     0.603990000000     0.656440000000     0.0502271  
H474     H      0.123240000000     0.586370000000     0.568660000000     0.0459673  
H475     H      0.229640000000     0.685020000000     0.659870000000     0.0386474  
H476     H      0.169370000000     0.671980000000     0.886500000000     0.04219    
H477     H      0.075150000000     0.639430000000     0.924950000000     0.0362275  
H478     H      0.138190000000     0.580310000000     0.927140000000     0.0410377  
H479     H      0.150520000000     0.688840000000     0.787170000000     0.0412864  
H480     H      0.076210000000     0.622760000000     0.970750000000     0.0446012  
H481     H      0.193150000000     0.631610000000     0.835360000000     0.0362318  
H482     H      0.131610000000     0.692140000000     0.832060000000     0.0361761  
H483     H      0.223080000000     0.659770000000     0.805350000000     0.0462999  
H484     H      0.109010000000     0.550490000000     0.956640000000     0.0461301  
H485     H      0.147030000000     0.651580000000     0.925930000000     0.0485559  
H486     H      0.045950000000     0.610230000000     0.954680000000     0.0460534  
H487     H      0.121640000000     0.620690000000     0.834120000000     0.046246   
H488     H      0.068910000000     0.605900000000     0.911510000000     0.0386714  
H489     H      0.160740000000     0.720630000000     0.801830000000     0.0476147  
H490     H      0.200220000000     0.665090000000     0.848540000000     0.0387405  
H491     H      0.164300000000     0.700500000000     0.846510000000     0.0388265  
H492     H      0.099330000000     0.600280000000     0.873510000000     0.0424822  
H493     H      0.105620000000     0.571530000000     0.913130000000     0.0399412  
H494     H      0.192440000000     0.647950000000     0.789420000000     0.0409341  
H495     H      0.172400000000     0.851450000000     0.615690000000     0.0441372  
H496     H      0.076420000000     0.885440000000     0.588790000000     0.0363359  
H497     H      0.136250000000     0.947730000000     0.590140000000     0.0426802  
H498     H      0.156550000000     0.819900000000     0.711900000000     0.0520854  
H499     H      0.073590000000     0.904940000000     0.544720000000     0.0447957  
H500     H      0.198710000000     0.884620000000     0.669440000000     0.0386228  
H501     H      0.137840000000     0.823460000000     0.667570000000     0.0373136  
H502     H      0.229860000000     0.852630000000     0.694640000000     0.0501889  
H503     H      0.104200000000     0.978400000000     0.563990000000     0.047967   
H504     H      0.147570000000     0.876570000000     0.580680000000     0.0495679  
H505     H      0.044550000000     0.916470000000     0.563430000000     0.046331   
H506     H      0.127500000000     0.894530000000     0.677050000000     0.0493672  
H507     H      0.069520000000     0.917470000000     0.605200000000     0.039217   
H508     H      0.169300000000     0.791730000000     0.692740000000     0.0478829  
H509     H      0.205180000000     0.852680000000     0.652710000000     0.0431576  
H510     H      0.170370000000     0.817710000000     0.651630000000     0.0386043  
H511     H      0.102700000000     0.919700000000     0.642010000000     0.0446448  
H512     H      0.103450000000     0.953100000000     0.605260000000     0.0442949  
H513     H      0.200940000000     0.864580000000     0.713300000000     0.045938   
H514     H      0.382570000000     0.637110000000     0.680220000000     0.0427515  
H515     H      0.392330000000     0.566760000000     0.602340000000     0.0364667  
H516     H      0.453970000000     0.627440000000     0.603490000000     0.0401689  
H517     H      0.293850000000     0.686010000000     0.660180000000     0.0387596  
H518     H      0.435560000000     0.543050000000     0.600150000000     0.043374   
H519     H      0.377980000000     0.703360000000     0.657610000000     0.0358118  
H520     H      0.316760000000     0.642330000000     0.657640000000     0.0358771  
H521     H      0.351860000000     0.730300000000     0.691590000000     0.0474882  
H522     H      0.480620000000     0.601220000000     0.568810000000     0.0447957  
H523     H      0.414430000000     0.605150000000     0.658870000000     0.0492018  
H524     H      0.418480000000     0.539890000000     0.568380000000     0.0472899  
H525     H      0.356430000000     0.664610000000     0.601870000000     0.0457111  
H526     H      0.399490000000     0.585570000000     0.571930000000     0.0392005  
H527     H      0.289860000000     0.668460000000     0.691650000000     0.0472954  
H528     H      0.371550000000     0.684770000000     0.688320000000     0.0399431  
H529     H      0.335380000000     0.648730000000     0.688350000000     0.0399459  
H530     H      0.388350000000     0.632730000000     0.580530000000     0.0419934  
H531     H      0.435840000000     0.620950000000     0.572720000000     0.0397947  
H532     H      0.334270000000     0.726300000000     0.660130000000     0.0395078  
H533     H      0.370210000000     0.872330000000     0.926120000000     0.0459094  
H534     H      0.389480000000     0.825560000000     0.835700000000     0.0362398  
H535     H      0.329960000000     0.888180000000     0.832790000000     0.0410674  
H536     H      0.438480000000     0.900510000000     0.973000000000     0.0405641  
H537     H      0.373010000000     0.826180000000     0.789810000000     0.0447364  
H538     H      0.381720000000     0.943850000000     0.924800000000     0.0378726  
H539     H      0.441640000000     0.881720000000     0.928080000000     0.0359329  
H540     H      0.410280000000     0.973400000000     0.954870000000     0.0490193  
H541     H      0.300400000000     0.858660000000     0.803350000000     0.0450031  
H542     H      0.349850000000     0.849910000000     0.886760000000     0.0418197  
H543     H      0.360540000000     0.796020000000     0.806050000000     0.0458883  
H544     H      0.421750000000     0.919740000000     0.873670000000     0.0446515  
H545     H      0.355870000000     0.819250000000     0.849020000000     0.0378966  
H546     H      0.470440000000     0.910410000000     0.958400000000     0.0472512  
H547     H      0.415350000000     0.950550000000     0.911680000000     0.0438567  
H548     H      0.450370000000     0.914310000000     0.913710000000     0.0405283  
H549     H      0.401390000000     0.897290000000     0.834280000000     0.0495876  
H550     H      0.321280000000     0.855700000000     0.846980000000     0.0393452  
H551     H      0.397980000000     0.942950000000     0.970770000000     0.041055   
H552     H      0.384560000000     0.635620000000     0.831050000000     0.0426286  
H553     H      0.452230000000     0.628850000000     0.911280000000     0.0360259  
H554     H      0.389670000000     0.569170000000     0.912390000000     0.0406045  
H555     H      0.336830000000     0.726130000000     0.845380000000     0.0394687  
H556     H      0.475150000000     0.585620000000     0.915890000000     0.0437708  
H557     H      0.318130000000     0.641990000000     0.851090000000     0.0361549  
H558     H      0.379830000000     0.702470000000     0.849800000000     0.035506   
H559     H      0.292380000000     0.666760000000     0.815200000000     0.0465268  
H560     H      0.414630000000     0.544050000000     0.949240000000     0.0442937  
H561     H      0.415170000000     0.604420000000     0.855090000000     0.0490247  
H562     H      0.477690000000     0.603770000000     0.947140000000     0.0463712  
H563     H      0.355270000000     0.666730000000     0.906960000000     0.0456316  
H564     H      0.432690000000     0.623590000000     0.941630000000     0.0385948  
H565     H      0.354700000000     0.727880000000     0.813870000000     0.046387   
H566     H      0.337560000000     0.647130000000     0.820640000000     0.0396292  
H567     H      0.373670000000     0.682520000000     0.819880000000     0.0392712  
H568     H      0.385890000000     0.635560000000     0.930990000000     0.041955   
H569     H      0.396540000000     0.588770000000     0.942150000000     0.039474   
H570     H      0.295150000000     0.685260000000     0.846270000000     0.0395998  
H571     H      0.097890000000     0.918910000000     0.868200000000     0.0429155  
H572     H      0.192850000000     0.885470000000     0.835990000000     0.0370717  
H573     H      0.131970000000     0.824130000000     0.835410000000     0.0403105  
H574     H      0.116560000000     0.945490000000     0.965290000000     0.0524863  
H575     H      0.194060000000     0.866900000000     0.791140000000     0.0455168  
H576     H      0.073610000000     0.883120000000     0.922190000000     0.0362777  
H577     H      0.134540000000     0.944260000000     0.920250000000     0.0378979  
H578     H      0.043450000000     0.913820000000     0.949630000000     0.046239   
H579     H      0.163160000000     0.793880000000     0.808070000000     0.0435501  
H580     H      0.121210000000     0.895470000000     0.831080000000     0.0492899  
H581     H      0.223860000000     0.855590000000     0.808820000000     0.0465778  
H582     H      0.144670000000     0.872470000000     0.925620000000     0.0477989  
H583     H      0.199650000000     0.852830000000     0.851210000000     0.0381406  
H584     H      0.104630000000     0.975100000000     0.947740000000     0.0492825  
H585     H      0.066440000000     0.915450000000     0.906480000000     0.0387977  
H586     H      0.101610000000     0.950800000000     0.905420000000     0.0386198  
H587     H      0.167880000000     0.848910000000     0.888510000000     0.0421037  
H588     H      0.164580000000     0.817440000000     0.850430000000     0.038657   
H589     H      0.073640000000     0.902540000000     0.966680000000     0.0441746  
H590     H      0.387510000000     0.889160000000     0.581840000000     0.0424886  
H591     H      0.378550000000     0.817230000000     0.658390000000     0.0362501  
H592     H      0.319040000000     0.879860000000     0.661680000000     0.0421277  
H593     H      0.477800000000     0.936630000000     0.600400000000     0.0409313  
H594     H      0.334880000000     0.794520000000     0.661320000000     0.0419846  
H595     H      0.393810000000     0.954730000000     0.604650000000     0.036723   
H596     H      0.454430000000     0.893180000000     0.602730000000     0.0360484  
H597     H      0.419530000000     0.981800000000     0.570350000000     0.0478498  
H598     H      0.293230000000     0.853310000000     0.696910000000     0.0478632  
H599     H      0.355750000000     0.857440000000     0.603710000000     0.0484843  
H600     H      0.352720000000     0.790040000000     0.692510000000     0.0473753  
H601     H      0.416980000000     0.914550000000     0.659720000000     0.0476191  
H602     H      0.373020000000     0.835220000000     0.689590000000     0.0417475  
H603     H      0.480970000000     0.919570000000     0.568580000000     0.0478841  
H604     H      0.399530000000     0.936430000000     0.573660000000     0.0401804  
H605     H      0.435260000000     0.900220000000     0.572510000000     0.0397873  
H606     H      0.385310000000     0.882750000000     0.681580000000     0.0457452  
H607     H      0.338210000000     0.871570000000     0.691360000000     0.046003   
H608     H      0.437520000000     0.977540000000     0.601530000000     0.0407287  
H609     H      0.667110000000     0.164510000000     0.100730000000     0.0464886  
H610     H      0.569330000000     0.127070000000     0.101880000000     0.0378429  
H611     H      0.631440000000     0.067040000000     0.098250000000     0.0422787  
H612     H      0.688770000000     0.225520000000     0.159600000000     0.0397881  
H613     H      0.546300000000     0.083630000000     0.099030000000     0.0513893  
H614     H      0.706570000000     0.141500000000     0.156840000000     0.0362318  
H615     H      0.645210000000     0.202340000000     0.156820000000     0.0361891  
H616     H      0.733090000000     0.167510000000     0.191400000000     0.0471574  
H617     H      0.604500000000     0.041670000000     0.062930000000     0.0485896  
H618     H      0.635200000000     0.133050000000     0.078700000000     0.0454005  
H619     H      0.541650000000     0.101590000000     0.067930000000     0.049675   
H620     H      0.640720000000     0.135590000000     0.178480000000     0.0429797  
H621     H      0.587190000000     0.121420000000     0.070620000000     0.0413096  
H622     H      0.671110000000     0.229190000000     0.191060000000     0.048455   
H623     H      0.687680000000     0.147710000000     0.187410000000     0.0402114  
H624     H      0.651620000000     0.183570000000     0.187410000000     0.0404134  
H625     H      0.608950000000     0.103990000000     0.156440000000     0.0502486  
H626     H      0.623240000000     0.086370000000     0.068660000000     0.0457167  
H627     H      0.729640000000     0.185020000000     0.159860000000     0.0385583  
H628     H      0.669370000000     0.171980000000     0.386500000000     0.0421285  
H629     H      0.575150000000     0.139430000000     0.424950000000     0.0361999  
H630     H      0.638190000000     0.080310000000     0.427140000000     0.0408828  
H631     H      0.650510000000     0.188840000000     0.287170000000     0.0412937  
H632     H      0.576210000000     0.122760000000     0.470750000000     0.044372   
H633     H      0.693150000000     0.131610000000     0.335360000000     0.0361838  
H634     H      0.631610000000     0.192140000000     0.332050000000     0.0361709  
H635     H      0.723080000000     0.159770000000     0.305350000000     0.0462828  
H636     H      0.609010000000     0.050490000000     0.456640000000     0.0459432  
H637     H      0.647030000000     0.151580000000     0.425930000000     0.0484051  
H638     H      0.545950000000     0.110230000000     0.454680000000     0.0460286  
H639     H      0.621640000000     0.120690000000     0.334120000000     0.0462749  
H640     H      0.568910000000     0.105900000000     0.411510000000     0.0387175  
H641     H      0.660740000000     0.220630000000     0.301830000000     0.0476209  
H642     H      0.700220000000     0.165090000000     0.348540000000     0.0386928  
H643     H      0.664300000000     0.200500000000     0.346510000000     0.0387929  
H644     H      0.599330000000     0.100280000000     0.373510000000     0.0424705  
H645     H      0.605610000000     0.071530000000     0.413130000000     0.0398664  
H646     H      0.692440000000     0.147950000000     0.289420000000     0.0409303  
H647     H      0.672390000000     0.351450000000     0.115690000000     0.0440892  
H648     H      0.576420000000     0.385450000000     0.088790000000     0.036343   
H649     H      0.636250000000     0.447730000000     0.090140000000     0.0425403  
H650     H      0.656550000000     0.319900000000     0.211900000000     0.0520928  
H651     H      0.573590000000     0.404940000000     0.044720000000     0.0445238  
H652     H      0.698710000000     0.384620000000     0.169440000000     0.038572   
H653     H      0.637840000000     0.323460000000     0.167570000000     0.0373481  
H654     H      0.729860000000     0.352630000000     0.194640000000     0.0501669  
H655     H      0.604200000000     0.478400000000     0.063990000000     0.0477974  
H656     H      0.647560000000     0.376570000000     0.080680000000     0.0494016  
H657     H      0.544550000000     0.416470000000     0.063430000000     0.0463018  
H658     H      0.627500000000     0.394540000000     0.177050000000     0.0493806  
H659     H      0.569520000000     0.417480000000     0.105190000000     0.0393022  
H660     H      0.669300000000     0.291730000000     0.192740000000     0.0478674  
H661     H      0.705180000000     0.352680000000     0.152710000000     0.0431093  
H662     H      0.670370000000     0.317710000000     0.151630000000     0.0385968  
H663     H      0.602700000000     0.419700000000     0.142010000000     0.0446482  
H664     H      0.603450000000     0.453100000000     0.105260000000     0.044251   
H665     H      0.700940000000     0.364580000000     0.213300000000     0.0459212  
H666     H      0.882570000000     0.137110000000     0.180220000000     0.0427714  
H667     H      0.892330000000     0.066760000000     0.102340000000     0.0363555  
H668     H      0.953970000000     0.127440000000     0.103490000000     0.0401576  
H669     H      0.793850000000     0.186010000000     0.160180000000     0.0387036  
H670     H      0.935560000000     0.043050000000     0.100150000000     0.0433363  
H671     H      0.877980000000     0.203360000000     0.157610000000     0.0358014  
H672     H      0.816760000000     0.142330000000     0.157640000000     0.0358141  
H673     H      0.851860000000     0.230300000000     0.191590000000     0.0474998  
H674     H      0.980620000000     0.101220000000     0.068810000000     0.044793   
H675     H      0.914430000000     0.105150000000     0.158870000000     0.0492033  
H676     H      0.918480000000     0.039890000000     0.068380000000     0.0470804  
H677     H      0.856430000000     0.164610000000     0.101870000000     0.0455772  
H678     H      0.899490000000     0.085570000000     0.071930000000     0.0390117  
H679     H      0.789860000000     0.168460000000     0.191650000000     0.0472849  
H680     H      0.871550000000     0.184770000000     0.188320000000     0.0399689  
H681     H      0.835380000000     0.148730000000     0.188350000000     0.0399409  
H682     H      0.888350000000     0.132730000000     0.080530000000     0.0418322  
H683     H      0.935830000000     0.120950000000     0.072720000000     0.0396368  
H684     H      0.834270000000     0.226300000000     0.160130000000     0.039461   
H685     H      0.870210000000     0.372330000000     0.426120000000     0.0457358  
H686     H      0.889480000000     0.325560000000     0.335700000000     0.0362573  
H687     H      0.829960000000     0.388180000000     0.332790000000     0.0410076  
H688     H      0.938480000000     0.400510000000     0.473000000000     0.0402897  
H689     H      0.873010000000     0.326190000000     0.289810000000     0.0447643  
H690     H      0.881720000000     0.443850000000     0.424800000000     0.0376958  
H691     H      0.941640000000     0.381720000000     0.428080000000     0.0358951  
H692     H      0.910280000000     0.473400000000     0.454870000000     0.0488061  
H693     H      0.800400000000     0.358660000000     0.303350000000     0.0449837  
H694     H      0.849850000000     0.349910000000     0.386760000000     0.0417508  
H695     H      0.860540000000     0.296020000000     0.306050000000     0.0458969  
H696     H      0.921750000000     0.419740000000     0.373670000000     0.0446542  
H697     H      0.855880000000     0.319250000000     0.349020000000     0.0378736  
H698     H      0.970440000000     0.410410000000     0.458400000000     0.0471978  
H699     H      0.915350000000     0.450550000000     0.411680000000     0.0437792  
H700     H      0.950370000000     0.414310000000     0.413710000000     0.0405691  
H701     H      0.901390000000     0.397290000000     0.334280000000     0.0496167  
H702     H      0.821280000000     0.355700000000     0.346980000000     0.0392785  
H703     H      0.897980000000     0.442950000000     0.470770000000     0.0407338  
H704     H      0.884560000000     0.135620000000     0.331050000000     0.0426498  
H705     H      0.952230000000     0.128850000000     0.411280000000     0.0360266  
H706     H      0.889670000000     0.069170000000     0.412390000000     0.0405343  
H707     H      0.836830000000     0.226130000000     0.345380000000     0.039422   
H708     H      0.975150000000     0.085620000000     0.415890000000     0.0438665  
H709     H      0.818120000000     0.141990000000     0.351090000000     0.0360875  
H710     H      0.879830000000     0.202470000000     0.349800000000     0.0355192  
H711     H      0.792380000000     0.166760000000     0.315200000000     0.0465165  
H712     H      0.914630000000     0.044050000000     0.449240000000     0.0440648  
H713     H      0.915170000000     0.104420000000     0.355090000000     0.0490391  
H714     H      0.977690000000     0.103770000000     0.447140000000     0.0463517  
H715     H      0.855270000000     0.166730000000     0.406960000000     0.0455215  
H716     H      0.932690000000     0.123590000000     0.441630000000     0.0384412  
H717     H      0.854700000000     0.227880000000     0.313870000000     0.0463899  
H718     H      0.837550000000     0.147130000000     0.320640000000     0.0396254  
H719     H      0.873670000000     0.182520000000     0.319890000000     0.0393225  
H720     H      0.885890000000     0.135560000000     0.431000000000     0.0417519  
H721     H      0.896540000000     0.088770000000     0.442150000000     0.0393114  
H722     H      0.795150000000     0.185260000000     0.346270000000     0.0395583  
H723     H      0.597890000000     0.418910000000     0.368200000000     0.0429208  
H724     H      0.692850000000     0.385470000000     0.335990000000     0.0370018  
H725     H      0.631970000000     0.324140000000     0.335410000000     0.0403317  
H726     H      0.616560000000     0.445490000000     0.465290000000     0.052068   
H727     H      0.694060000000     0.366900000000     0.291140000000     0.0455055  
H728     H      0.573610000000     0.383120000000     0.422190000000     0.0362372  
H729     H      0.634540000000     0.444260000000     0.420250000000     0.0377941  
H730     H      0.543450000000     0.413820000000     0.449630000000     0.0462125  
H731     H      0.663160000000     0.293880000000     0.308070000000     0.0435607  
H732     H      0.621210000000     0.395470000000     0.331080000000     0.0493038  
H733     H      0.723860000000     0.355590000000     0.308820000000     0.0465567  
H734     H      0.644670000000     0.372470000000     0.425630000000     0.0475712  
H735     H      0.699650000000     0.352830000000     0.351210000000     0.0380632  
H736     H      0.604630000000     0.475100000000     0.447740000000     0.0490624  
H737     H      0.566440000000     0.415450000000     0.406490000000     0.0388462  
H738     H      0.601610000000     0.450800000000     0.405420000000     0.0386383  
H739     H      0.667880000000     0.348910000000     0.388510000000     0.0420339  
H740     H      0.664580000000     0.317440000000     0.350430000000     0.0386275  
H741     H      0.573650000000     0.402540000000     0.466680000000     0.0438831  
H742     H      0.887510000000     0.389160000000     0.081840000000     0.0423202  
H743     H      0.878550000000     0.317230000000     0.158390000000     0.0362313  
H744     H      0.819040000000     0.379860000000     0.161680000000     0.0420452  
H745     H      0.977800000000     0.436640000000     0.100400000000     0.0410312  
H746     H      0.834880000000     0.294520000000     0.161320000000     0.0419448  
H747     H      0.893810000000     0.454730000000     0.104650000000     0.0366027  
H748     H      0.954430000000     0.393180000000     0.102730000000     0.0360481  
H749     H      0.919530000000     0.481800000000     0.070350000000     0.0476498  
H750     H      0.793230000000     0.353310000000     0.196910000000     0.0478559  
H751     H      0.855750000000     0.357440000000     0.103710000000     0.0483515  
H752     H      0.852720000000     0.290040000000     0.192510000000     0.0473843  
H753     H      0.916980000000     0.414550000000     0.159720000000     0.0476322  
H754     H      0.873020000000     0.335220000000     0.189590000000     0.0417675  
H755     H      0.980970000000     0.419570000000     0.068580000000     0.0478727  
H756     H      0.899530000000     0.436430000000     0.073660000000     0.0399685  
H757     H      0.935260000000     0.400220000000     0.072510000000     0.0396241  
H758     H      0.885310000000     0.382750000000     0.181580000000     0.0457951  
H759     H      0.838200000000     0.371570000000     0.191360000000     0.0459886  
H760     H      0.937520000000     0.477540000000     0.101530000000     0.04071    
H761     H      0.667110000000     0.164510000000     0.600730000000     0.0466323  
H762     H      0.569330000000     0.127070000000     0.601880000000     0.0379115  
H763     H      0.631440000000     0.067040000000     0.598250000000     0.0423578  
H764     H      0.688770000000     0.225520000000     0.659600000000     0.0398436  
H765     H      0.546300000000     0.083630000000     0.599030000000     0.0513666  
H766     H      0.706570000000     0.141500000000     0.656840000000     0.0362714  
H767     H      0.645210000000     0.202340000000     0.656820000000     0.0362312  
H768     H      0.733090000000     0.167510000000     0.691400000000     0.0471708  
H769     H      0.604500000000     0.041670000000     0.562930000000     0.0487521  
H770     H      0.635200000000     0.133050000000     0.578700000000     0.045594   
H771     H      0.541650000000     0.101590000000     0.567930000000     0.0498058  
H772     H      0.640720000000     0.135590000000     0.678480000000     0.0429726  
H773     H      0.587190000000     0.121420000000     0.570620000000     0.0415174  
H774     H      0.671110000000     0.229190000000     0.691060000000     0.0484655  
H775     H      0.687680000000     0.147710000000     0.687410000000     0.0402041  
H776     H      0.651620000000     0.183570000000     0.687410000000     0.0404091  
H777     H      0.608950000000     0.103990000000     0.656440000000     0.0502418  
H778     H      0.623240000000     0.086370000000     0.568660000000     0.0459467  
H779     H      0.729640000000     0.185020000000     0.659870000000     0.0386275  
H780     H      0.669370000000     0.171980000000     0.886500000000     0.042193   
H781     H      0.575150000000     0.139430000000     0.924950000000     0.0362875  
H782     H      0.638190000000     0.080310000000     0.927140000000     0.0409606  
H783     H      0.650510000000     0.188840000000     0.787170000000     0.0412867  
H784     H      0.576210000000     0.122760000000     0.970750000000     0.0446442  
H785     H      0.693150000000     0.131610000000     0.835360000000     0.036206   
H786     H      0.631610000000     0.192140000000     0.832060000000     0.0361872  
H787     H      0.723080000000     0.159770000000     0.805350000000     0.046286   
H788     H      0.609010000000     0.050490000000     0.956640000000     0.046075   
H789     H      0.647030000000     0.151580000000     0.925930000000     0.0485579  
H790     H      0.545950000000     0.110230000000     0.954680000000     0.0461588  
H791     H      0.621640000000     0.120690000000     0.834120000000     0.0462576  
H792     H      0.568910000000     0.105900000000     0.911510000000     0.0387184  
H793     H      0.660740000000     0.220630000000     0.801830000000     0.0476235  
H794     H      0.700220000000     0.165090000000     0.848540000000     0.0387316  
H795     H      0.664300000000     0.200500000000     0.846510000000     0.0388266  
H796     H      0.599330000000     0.100280000000     0.873510000000     0.0424653  
H797     H      0.605610000000     0.071530000000     0.913130000000     0.0398734  
H798     H      0.692440000000     0.147950000000     0.789420000000     0.0409219  
H799     H      0.672390000000     0.351450000000     0.615690000000     0.0441653  
H800     H      0.576420000000     0.385450000000     0.588790000000     0.0364222  
H801     H      0.636250000000     0.447730000000     0.590140000000     0.0426047  
H802     H      0.656550000000     0.319900000000     0.711900000000     0.0520868  
H803     H      0.573590000000     0.404940000000     0.544720000000     0.0448117  
H804     H      0.698710000000     0.384620000000     0.669440000000     0.0385949  
H805     H      0.637840000000     0.323460000000     0.667570000000     0.0373792  
H806     H      0.729860000000     0.352630000000     0.694640000000     0.0501767  
H807     H      0.604200000000     0.478400000000     0.563990000000     0.0478717  
H808     H      0.647560000000     0.376570000000     0.580680000000     0.0495718  
H809     H      0.544550000000     0.416470000000     0.563430000000     0.046411   
H810     H      0.627500000000     0.394540000000     0.677050000000     0.0493645  
H811     H      0.569520000000     0.417480000000     0.605200000000     0.0392706  
H812     H      0.669300000000     0.291730000000     0.692740000000     0.0478835  
H813     H      0.705180000000     0.352680000000     0.652710000000     0.0431508  
H814     H      0.670370000000     0.317710000000     0.651630000000     0.0386485  
H815     H      0.602700000000     0.419700000000     0.642010000000     0.0446464  
H816     H      0.603450000000     0.453100000000     0.605260000000     0.0442436  
H817     H      0.700940000000     0.364580000000     0.713300000000     0.0459224  
H818     H      0.882570000000     0.137110000000     0.680220000000     0.0427613  
H819     H      0.892330000000     0.066760000000     0.602340000000     0.0364223  
H820     H      0.953970000000     0.127440000000     0.603490000000     0.0402221  
H821     H      0.793850000000     0.186010000000     0.660180000000     0.0387551  
H822     H      0.935560000000     0.043050000000     0.600150000000     0.0433174  
H823     H      0.877980000000     0.203360000000     0.657610000000     0.035843   
H824     H      0.816760000000     0.142330000000     0.657640000000     0.0358555  
H825     H      0.851860000000     0.230300000000     0.691590000000     0.0475002  
H826     H      0.980620000000     0.101220000000     0.568810000000     0.0449138  
H827     H      0.914430000000     0.105150000000     0.658870000000     0.0492021  
H828     H      0.918480000000     0.039890000000     0.568380000000     0.0472016  
H829     H      0.856430000000     0.164610000000     0.601870000000     0.0457151  
H830     H      0.899490000000     0.085570000000     0.571930000000     0.0391865  
H831     H      0.789860000000     0.168460000000     0.691650000000     0.0472843  
H832     H      0.871550000000     0.184770000000     0.688320000000     0.0399622  
H833     H      0.835380000000     0.148730000000     0.688350000000     0.039934   
H834     H      0.888350000000     0.132730000000     0.580530000000     0.0419898  
H835     H      0.935830000000     0.120950000000     0.572720000000     0.0398075  
H836     H      0.834270000000     0.226300000000     0.660130000000     0.0395131  
H837     H      0.870210000000     0.372330000000     0.926120000000     0.0459076  
H838     H      0.889480000000     0.325560000000     0.835700000000     0.03628    
H839     H      0.829960000000     0.388180000000     0.832790000000     0.0410401  
H840     H      0.938480000000     0.400510000000     0.973000000000     0.0406045  
H841     H      0.873010000000     0.326190000000     0.789810000000     0.0447554  
H842     H      0.881720000000     0.443850000000     0.924800000000     0.0377842  
H843     H      0.941640000000     0.381720000000     0.928080000000     0.0359918  
H844     H      0.910280000000     0.473400000000     0.954870000000     0.0489489  
H845     H      0.800400000000     0.358660000000     0.803350000000     0.0449893  
H846     H      0.849850000000     0.349910000000     0.886760000000     0.0418172  
H847     H      0.860540000000     0.296020000000     0.806050000000     0.0459015  
H848     H      0.921750000000     0.419740000000     0.873670000000     0.0446559  
H849     H      0.855880000000     0.319250000000     0.849020000000     0.037916   
H850     H      0.970440000000     0.410410000000     0.958400000000     0.0473554  
H851     H      0.915350000000     0.450550000000     0.911680000000     0.0437789  
H852     H      0.950370000000     0.414310000000     0.913710000000     0.0405712  
H853     H      0.901390000000     0.397290000000     0.834280000000     0.0496018  
H854     H      0.821280000000     0.355700000000     0.846980000000     0.0393375  
H855     H      0.897980000000     0.442950000000     0.970770000000     0.041035   
H856     H      0.884560000000     0.135620000000     0.831050000000     0.0426357  
H857     H      0.952230000000     0.128850000000     0.911280000000     0.036093   
H858     H      0.889670000000     0.069170000000     0.912390000000     0.0406007  
H859     H      0.836830000000     0.226130000000     0.845380000000     0.0394746  
H860     H      0.975150000000     0.085620000000     0.915890000000     0.0438536  
H861     H      0.818120000000     0.141990000000     0.851090000000     0.0361199  
H862     H      0.879830000000     0.202470000000     0.849800000000     0.0355379  
H863     H      0.792380000000     0.166760000000     0.815200000000     0.0465139  
H864     H      0.914630000000     0.044050000000     0.949240000000     0.0442205  
H865     H      0.915170000000     0.104420000000     0.855090000000     0.0490379  
H866     H      0.977690000000     0.103770000000     0.947140000000     0.0464772  
H867     H      0.855270000000     0.166730000000     0.906960000000     0.045634   
H868     H      0.932690000000     0.123590000000     0.941630000000     0.0386237  
H869     H      0.854700000000     0.227880000000     0.813870000000     0.0464005  
H870     H      0.837550000000     0.147130000000     0.820640000000     0.039619   
H871     H      0.873670000000     0.182520000000     0.819880000000     0.0392913  
H872     H      0.885890000000     0.135560000000     0.930990000000     0.0419581  
H873     H      0.896540000000     0.088770000000     0.942150000000     0.039491   
H874     H      0.795150000000     0.185260000000     0.846270000000     0.0395949  
H875     H      0.597890000000     0.418910000000     0.868200000000     0.0429231  
H876     H      0.692850000000     0.385470000000     0.835990000000     0.037043   
H877     H      0.631970000000     0.324140000000     0.835410000000     0.0403559  
H878     H      0.616560000000     0.445490000000     0.965290000000     0.0524413  
H879     H      0.694060000000     0.366900000000     0.791140000000     0.0455013  
H880     H      0.573610000000     0.383120000000     0.922190000000     0.0363357  
H881     H      0.634540000000     0.444260000000     0.920250000000     0.0378875  
H882     H      0.543450000000     0.413820000000     0.949630000000     0.046331   
H883     H      0.663160000000     0.293880000000     0.808070000000     0.043561   
H884     H      0.621210000000     0.395470000000     0.831080000000     0.0492896  
H885     H      0.723860000000     0.355590000000     0.808820000000     0.0465638  
H886     H      0.644670000000     0.372470000000     0.925620000000     0.0477997  
H887     H      0.699650000000     0.352830000000     0.851210000000     0.0381313  
H888     H      0.604630000000     0.475100000000     0.947740000000     0.0491932  
H889     H      0.566440000000     0.415450000000     0.906480000000     0.0388411  
H890     H      0.601610000000     0.450800000000     0.905420000000     0.0386319  
H891     H      0.667880000000     0.348910000000     0.888510000000     0.0421063  
H892     H      0.664580000000     0.317440000000     0.850430000000     0.0386714  
H893     H      0.573650000000     0.402540000000     0.966680000000     0.0442106  
H894     H      0.887510000000     0.389160000000     0.581840000000     0.0424895  
H895     H      0.878550000000     0.317230000000     0.658390000000     0.0362807  
H896     H      0.819040000000     0.379860000000     0.661680000000     0.0420858  
H897     H      0.977800000000     0.436640000000     0.600400000000     0.0410053  
H898     H      0.834880000000     0.294520000000     0.661320000000     0.0419906  
H899     H      0.893810000000     0.454730000000     0.604650000000     0.036669   
H900     H      0.954430000000     0.393180000000     0.602730000000     0.0361159  
H901     H      0.919530000000     0.481800000000     0.570350000000     0.0477554  
H902     H      0.793230000000     0.353310000000     0.696910000000     0.0478542  
H903     H      0.855750000000     0.357440000000     0.603710000000     0.0484851  
H904     H      0.852720000000     0.290040000000     0.692510000000     0.0473881  
H905     H      0.916980000000     0.414550000000     0.659720000000     0.0476267  
H906     H      0.873020000000     0.335220000000     0.689590000000     0.0417674  
H907     H      0.980970000000     0.419570000000     0.568580000000     0.0479935  
H908     H      0.899530000000     0.436430000000     0.573660000000     0.0401577  
H909     H      0.935260000000     0.400220000000     0.572510000000     0.0398148  
H910     H      0.885310000000     0.382750000000     0.681580000000     0.0457519  
H911     H      0.838200000000     0.371570000000     0.691360000000     0.0459886  
H912     H      0.937520000000     0.477540000000     0.601530000000     0.0406689  
H913     H      0.667110000000     0.664510000000     0.100730000000     0.0464881  
H914     H      0.569330000000     0.627070000000     0.101880000000     0.0378392  
H915     H      0.631440000000     0.567040000000     0.098250000000     0.0423264  
H916     H      0.688770000000     0.725520000000     0.159600000000     0.0397776  
H917     H      0.546300000000     0.583630000000     0.099030000000     0.0514193  
H918     H      0.706570000000     0.641500000000     0.156840000000     0.0362498  
H919     H      0.645210000000     0.702340000000     0.156820000000     0.0361911  
H920     H      0.733090000000     0.667510000000     0.191400000000     0.0471774  
H921     H      0.604500000000     0.541670000000     0.062930000000     0.0486552  
H922     H      0.635200000000     0.633050000000     0.078700000000     0.045406   
H923     H      0.541650000000     0.601590000000     0.067930000000     0.0496851  
H924     H      0.640720000000     0.635580000000     0.178480000000     0.0429825  
H925     H      0.587190000000     0.621420000000     0.070620000000     0.0413018  
H926     H      0.671110000000     0.729190000000     0.191060000000     0.0484435  
H927     H      0.687680000000     0.647710000000     0.187410000000     0.040222   
H928     H      0.651620000000     0.683570000000     0.187410000000     0.0404199  
H929     H      0.608950000000     0.603990000000     0.156440000000     0.0502736  
H930     H      0.623240000000     0.586370000000     0.068660000000     0.045735   
H931     H      0.729640000000     0.685020000000     0.159860000000     0.0385754  
H932     H      0.669370000000     0.671980000000     0.386500000000     0.0421297  
H933     H      0.575150000000     0.639430000000     0.424950000000     0.0361991  
H934     H      0.638190000000     0.580310000000     0.427140000000     0.0409583  
H935     H      0.650510000000     0.688840000000     0.287170000000     0.0412977  
H936     H      0.576210000000     0.622760000000     0.470750000000     0.0443665  
H937     H      0.693150000000     0.631610000000     0.335360000000     0.0362092  
H938     H      0.631610000000     0.692140000000     0.332050000000     0.0361703  
H939     H      0.723080000000     0.659770000000     0.305350000000     0.0462942  
H940     H      0.609010000000     0.550490000000     0.456640000000     0.0460051  
H941     H      0.647030000000     0.651580000000     0.425930000000     0.0484078  
H942     H      0.545950000000     0.610230000000     0.454680000000     0.0460298  
H943     H      0.621640000000     0.620690000000     0.334120000000     0.0462981  
H944     H      0.568910000000     0.605900000000     0.411510000000     0.038734   
H945     H      0.660740000000     0.720630000000     0.301830000000     0.0476193  
H946     H      0.700220000000     0.665090000000     0.348540000000     0.038698   
H947     H      0.664300000000     0.700500000000     0.346510000000     0.0387904  
H948     H      0.599330000000     0.600280000000     0.373510000000     0.042497   
H949     H      0.605610000000     0.571530000000     0.413130000000     0.0399512  
H950     H      0.692440000000     0.647950000000     0.289420000000     0.0409481  
H951     H      0.672390000000     0.851450000000     0.115690000000     0.0440899  
H952     H      0.576420000000     0.885440000000     0.088790000000     0.0363199  
H953     H      0.636250000000     0.947730000000     0.090140000000     0.0425917  
H954     H      0.656550000000     0.819900000000     0.211900000000     0.0521049  
H955     H      0.573590000000     0.904940000000     0.044720000000     0.0445216  
H956     H      0.698710000000     0.884620000000     0.169440000000     0.0385992  
H957     H      0.637840000000     0.823460000000     0.167570000000     0.0373122  
H958     H      0.729860000000     0.852630000000     0.194640000000     0.0501766  
H959     H      0.604200000000     0.978400000000     0.063990000000     0.0479006  
H960     H      0.647560000000     0.876570000000     0.080680000000     0.0494071  
H961     H      0.544550000000     0.916470000000     0.063430000000     0.0463111  
H962     H      0.627500000000     0.894530000000     0.177050000000     0.0494119  
H963     H      0.569520000000     0.917470000000     0.105190000000     0.0393197  
H964     H      0.669300000000     0.791730000000     0.192740000000     0.0478763  
H965     H      0.705180000000     0.852680000000     0.152710000000     0.0431146  
H966     H      0.670370000000     0.817710000000     0.151630000000     0.0385593  
H967     H      0.602700000000     0.919700000000     0.142010000000     0.0446809  
H968     H      0.603450000000     0.953100000000     0.105260000000     0.0443155  
H969     H      0.700940000000     0.864580000000     0.213300000000     0.0459381  
H970     H      0.882570000000     0.637110000000     0.180220000000     0.0427845  
H971     H      0.892330000000     0.566760000000     0.102340000000     0.0364067  
H972     H      0.953970000000     0.627440000000     0.103490000000     0.0401569  
H973     H      0.793850000000     0.686010000000     0.160180000000     0.0387058  
H974     H      0.935560000000     0.543050000000     0.100150000000     0.0434215  
H975     H      0.877980000000     0.703360000000     0.157610000000     0.0357992  
H976     H      0.816760000000     0.642330000000     0.157640000000     0.0358349  
H977     H      0.851860000000     0.730300000000     0.191590000000     0.0474984  
H978     H      0.980620000000     0.601220000000     0.068810000000     0.0447924  
H979     H      0.914430000000     0.605150000000     0.158870000000     0.0492313  
H980     H      0.918480000000     0.539890000000     0.068380000000     0.0471707  
H981     H      0.856430000000     0.664610000000     0.101870000000     0.0455799  
H982     H      0.899490000000     0.585570000000     0.071930000000     0.0390299  
H983     H      0.789860000000     0.668460000000     0.191650000000     0.0472941  
H984     H      0.871550000000     0.684770000000     0.188320000000     0.0399714  
H985     H      0.835380000000     0.648730000000     0.188350000000     0.0399567  
H986     H      0.888350000000     0.632730000000     0.080530000000     0.041838   
H987     H      0.935830000000     0.620950000000     0.072720000000     0.0396352  
H988     H      0.834270000000     0.726300000000     0.160130000000     0.0394589  
H989     H      0.870210000000     0.872330000000     0.426120000000     0.0457463  
H990     H      0.889480000000     0.825560000000     0.335700000000     0.036256   
H991     H      0.829960000000     0.888180000000     0.332790000000     0.0410353  
H992     H      0.938480000000     0.900510000000     0.473000000000     0.0402868  
H993     H      0.873010000000     0.826180000000     0.289810000000     0.0447666  
H994     H      0.881720000000     0.943850000000     0.424800000000     0.0377831  
H995     H      0.941640000000     0.881720000000     0.428080000000     0.0358953  
H996     H      0.910280000000     0.973400000000     0.454870000000     0.0488883  
H997     H      0.800400000000     0.858660000000     0.303350000000     0.0449944  
H998     H      0.849850000000     0.849910000000     0.386760000000     0.0417517  
H999     H      0.860540000000     0.796020000000     0.306050000000     0.0458954  
H1000    H      0.921750000000     0.919740000000     0.373670000000     0.0446865  
H1001    H      0.855880000000     0.819250000000     0.349020000000     0.0378704  
H1002    H      0.970440000000     0.910410000000     0.458400000000     0.047201   
H1003    H      0.915350000000     0.950550000000     0.411680000000     0.0438788  
H1004    H      0.950370000000     0.914310000000     0.413710000000     0.0405932  
H1005    H      0.901390000000     0.897290000000     0.334280000000     0.0496441  
H1006    H      0.821280000000     0.855700000000     0.346980000000     0.0392854  
H1007    H      0.897980000000     0.942950000000     0.470770000000     0.0407552  
H1008    H      0.884560000000     0.635620000000     0.331050000000     0.0426634  
H1009    H      0.952230000000     0.628850000000     0.411280000000     0.0360278  
H1010    H      0.889670000000     0.569170000000     0.412390000000     0.040577   
H1011    H      0.836830000000     0.726130000000     0.345380000000     0.0394197  
H1012    H      0.975150000000     0.585620000000     0.415890000000     0.0438873  
H1013    H      0.818120000000     0.641990000000     0.351090000000     0.0361081  
H1014    H      0.879830000000     0.702470000000     0.349800000000     0.0355173  
H1015    H      0.792380000000     0.666760000000     0.315200000000     0.0465266  
H1016    H      0.914630000000     0.544050000000     0.449240000000     0.0441335  
H1017    H      0.915170000000     0.604420000000     0.355090000000     0.0490651  
H1018    H      0.977690000000     0.603770000000     0.447140000000     0.046354   
H1019    H      0.855270000000     0.666730000000     0.406960000000     0.0455239  
H1020    H      0.932690000000     0.623590000000     0.441630000000     0.0384399  
H1021    H      0.854700000000     0.727880000000     0.313870000000     0.0463885  
H1022    H      0.837550000000     0.647130000000     0.320640000000     0.0396417  
H1023    H      0.873670000000     0.682520000000     0.319890000000     0.0393257  
H1024    H      0.885890000000     0.635560000000     0.431000000000     0.0417571  
H1025    H      0.896540000000     0.588770000000     0.442150000000     0.039329   
H1026    H      0.795150000000     0.685260000000     0.346270000000     0.0395607  
H1027    H      0.597890000000     0.918910000000     0.368200000000     0.0429526  
H1028    H      0.692850000000     0.885470000000     0.335990000000     0.0370287  
H1029    H      0.631970000000     0.824130000000     0.335410000000     0.0403182  
H1030    H      0.616560000000     0.945490000000     0.465290000000     0.0521097  
H1031    H      0.694060000000     0.866900000000     0.291140000000     0.045523   
H1032    H      0.573610000000     0.883120000000     0.422190000000     0.036238   
H1033    H      0.634540000000     0.944260000000     0.420250000000     0.0378058  
H1034    H      0.543450000000     0.913820000000     0.449630000000     0.0462234  
H1035    H      0.663160000000     0.793880000000     0.308070000000     0.0435593  
H1036    H      0.621210000000     0.895470000000     0.331080000000     0.0493289  
H1037    H      0.723860000000     0.855590000000     0.308820000000     0.0465677  
H1038    H      0.644670000000     0.872470000000     0.425630000000     0.0475761  
H1039    H      0.699650000000     0.852830000000     0.351210000000     0.0380693  
H1040    H      0.604630000000     0.975100000000     0.447740000000     0.0491612  
H1041    H      0.566440000000     0.915450000000     0.406490000000     0.0388674  
H1042    H      0.601610000000     0.950800000000     0.405420000000     0.0386523  
H1043    H      0.667880000000     0.848910000000     0.388510000000     0.0420357  
H1044    H      0.664580000000     0.817440000000     0.350430000000     0.0386202  
H1045    H      0.573650000000     0.902540000000     0.466680000000     0.0438821  
H1046    H      0.887510000000     0.889160000000     0.081840000000     0.0423275  
H1047    H      0.878550000000     0.817230000000     0.158390000000     0.0362294  
H1048    H      0.819040000000     0.879860000000     0.161680000000     0.0420685  
H1049    H      0.977800000000     0.936630000000     0.100400000000     0.0410675  
H1050    H      0.834880000000     0.794520000000     0.161320000000     0.0419426  
H1051    H      0.893810000000     0.954730000000     0.104650000000     0.0366591  
H1052    H      0.954430000000     0.893180000000     0.102730000000     0.0360497  
H1053    H      0.919530000000     0.981800000000     0.070350000000     0.047747   
H1054    H      0.793230000000     0.853310000000     0.196910000000     0.0478658  
H1055    H      0.855750000000     0.857440000000     0.103710000000     0.0483551  
H1056    H      0.852720000000     0.790040000000     0.192510000000     0.0473828  
H1057    H      0.916980000000     0.914550000000     0.159720000000     0.0476662  
H1058    H      0.873020000000     0.835220000000     0.189590000000     0.0417699  
H1059    H      0.980970000000     0.919570000000     0.068580000000     0.0478779  
H1060    H      0.899530000000     0.936430000000     0.073660000000     0.0399894  
H1061    H      0.935260000000     0.900220000000     0.072510000000     0.0396222  
H1062    H      0.885310000000     0.882750000000     0.181580000000     0.0458091  
H1063    H      0.838200000000     0.871570000000     0.191360000000     0.0460035  
H1064    H      0.937520000000     0.977540000000     0.101530000000     0.0408079  
H1065    H      0.667110000000     0.664510000000     0.600730000000     0.0466318  
H1066    H      0.569330000000     0.627070000000     0.601880000000     0.0379079  
H1067    H      0.631440000000     0.567040000000     0.598250000000     0.0424055  
H1068    H      0.688770000000     0.725520000000     0.659600000000     0.0398332  
H1069    H      0.546300000000     0.583630000000     0.599030000000     0.0513965  
H1070    H      0.706570000000     0.641500000000     0.656840000000     0.0362894  
H1071    H      0.645210000000     0.702340000000     0.656820000000     0.0362331  
H1072    H      0.733090000000     0.667510000000     0.691400000000     0.0471909  
H1073    H      0.604500000000     0.541670000000     0.562930000000     0.0488177  
H1074    H      0.635200000000     0.633050000000     0.578700000000     0.0455995  
H1075    H      0.541650000000     0.601590000000     0.567930000000     0.049816   
H1076    H      0.640720000000     0.635580000000     0.678480000000     0.0429754  
H1077    H      0.587190000000     0.621420000000     0.570620000000     0.0415096  
H1078    H      0.671110000000     0.729190000000     0.691060000000     0.0484541  
H1079    H      0.687680000000     0.647710000000     0.687410000000     0.0402147  
H1080    H      0.651620000000     0.683570000000     0.687410000000     0.0404155  
H1081    H      0.608950000000     0.603990000000     0.656440000000     0.0502668  
H1082    H      0.623240000000     0.586370000000     0.568660000000     0.0459651  
H1083    H      0.729640000000     0.685020000000     0.659870000000     0.0386446  
H1084    H      0.669370000000     0.671980000000     0.886500000000     0.0421941  
H1085    H      0.575150000000     0.639430000000     0.924950000000     0.0362867  
H1086    H      0.638190000000     0.580310000000     0.927140000000     0.0410361  
H1087    H      0.650510000000     0.688840000000     0.787170000000     0.0412907  
H1088    H      0.576210000000     0.622760000000     0.970750000000     0.0446386  
H1089    H      0.693150000000     0.631610000000     0.835360000000     0.0362313  
H1090    H      0.631610000000     0.692140000000     0.832060000000     0.0361866  
H1091    H      0.723080000000     0.659770000000     0.805350000000     0.0462974  
H1092    H      0.609010000000     0.550490000000     0.956640000000     0.0461367  
H1093    H      0.647030000000     0.651580000000     0.925930000000     0.0485605  
H1094    H      0.545950000000     0.610230000000     0.954680000000     0.04616    
H1095    H      0.621640000000     0.620690000000     0.834120000000     0.0462808  
H1096    H      0.568910000000     0.605900000000     0.911510000000     0.0387348  
H1097    H      0.660740000000     0.720630000000     0.801830000000     0.0476218  
H1098    H      0.700220000000     0.665090000000     0.848540000000     0.0387369  
H1099    H      0.664300000000     0.700500000000     0.846510000000     0.038824   
H1100    H      0.599330000000     0.600280000000     0.873510000000     0.0424917  
H1101    H      0.605610000000     0.571530000000     0.913130000000     0.0399581  
H1102    H      0.692440000000     0.647950000000     0.789420000000     0.0409397  
H1103    H      0.672390000000     0.851450000000     0.615690000000     0.0441659  
H1104    H      0.576420000000     0.885440000000     0.588790000000     0.036399   
H1105    H      0.636250000000     0.947730000000     0.590140000000     0.0426559  
H1106    H      0.656550000000     0.819900000000     0.711900000000     0.052099   
H1107    H      0.573590000000     0.904940000000     0.544720000000     0.0448091  
H1108    H      0.698710000000     0.884620000000     0.669440000000     0.0386219  
H1109    H      0.637840000000     0.823460000000     0.667570000000     0.0373432  
H1110    H      0.729860000000     0.852630000000     0.694640000000     0.0501864  
H1111    H      0.604200000000     0.978400000000     0.563990000000     0.0479746  
H1112    H      0.647560000000     0.876570000000     0.580680000000     0.0495771  
H1113    H      0.544550000000     0.916470000000     0.563430000000     0.0464201  
H1114    H      0.627500000000     0.894530000000     0.677050000000     0.0493957  
H1115    H      0.569520000000     0.917470000000     0.605200000000     0.039288   
H1116    H      0.669300000000     0.791730000000     0.692740000000     0.0478924  
H1117    H      0.705180000000     0.852680000000     0.652710000000     0.0431562  
H1118    H      0.670370000000     0.817710000000     0.651630000000     0.0386109  
H1119    H      0.602700000000     0.919700000000     0.642010000000     0.0446791  
H1120    H      0.603450000000     0.953100000000     0.605260000000     0.0443079  
H1121    H      0.700940000000     0.864580000000     0.713300000000     0.0459393  
H1122    H      0.882570000000     0.637110000000     0.680220000000     0.0427744  
H1123    H      0.892330000000     0.566760000000     0.602340000000     0.0364735  
H1124    H      0.953970000000     0.627440000000     0.603490000000     0.0402214  
H1125    H      0.793850000000     0.686010000000     0.660180000000     0.0387573  
H1126    H      0.935560000000     0.543050000000     0.600150000000     0.0434025  
H1127    H      0.877980000000     0.703360000000     0.657610000000     0.0358408  
H1128    H      0.816760000000     0.642330000000     0.657640000000     0.0358764  
H1129    H      0.851860000000     0.730300000000     0.691590000000     0.0474988  
H1130    H      0.980620000000     0.601220000000     0.568810000000     0.0449132  
H1131    H      0.914430000000     0.605150000000     0.658870000000     0.0492301  
H1132    H      0.918480000000     0.539890000000     0.568380000000     0.047292   
H1133    H      0.856430000000     0.664610000000     0.601870000000     0.0457177  
H1134    H      0.899490000000     0.585570000000     0.571930000000     0.0392048  
H1135    H      0.789860000000     0.668460000000     0.691650000000     0.0472934  
H1136    H      0.871550000000     0.684770000000     0.688320000000     0.0399647  
H1137    H      0.835380000000     0.648730000000     0.688350000000     0.0399499  
H1138    H      0.888350000000     0.632730000000     0.580530000000     0.0419956  
H1139    H      0.935830000000     0.620950000000     0.572720000000     0.0398059  
H1140    H      0.834270000000     0.726300000000     0.660130000000     0.039511   
H1141    H      0.870210000000     0.872330000000     0.926120000000     0.0459178  
H1142    H      0.889480000000     0.825560000000     0.835700000000     0.0362788  
H1143    H      0.829960000000     0.888180000000     0.832790000000     0.0410676  
H1144    H      0.938480000000     0.900510000000     0.973000000000     0.0406011  
H1145    H      0.873010000000     0.826180000000     0.789810000000     0.0447577  
H1146    H      0.881720000000     0.943850000000     0.924800000000     0.0378711  
H1147    H      0.941640000000     0.881720000000     0.928080000000     0.0359919  
H1148    H      0.910280000000     0.973400000000     0.954870000000     0.0490304  
H1149    H      0.800400000000     0.858660000000     0.803350000000     0.0449999  
H1150    H      0.849850000000     0.849910000000     0.886760000000     0.041818   
H1151    H      0.860540000000     0.796020000000     0.806050000000     0.0459     
H1152    H      0.921750000000     0.919740000000     0.873670000000     0.0446881  
H1153    H      0.855880000000     0.819250000000     0.849020000000     0.0379127  
H1154    H      0.970440000000     0.910410000000     0.958400000000     0.0473584  
H1155    H      0.915350000000     0.950550000000     0.911680000000     0.0438782  
H1156    H      0.950370000000     0.914310000000     0.913710000000     0.0405953  
H1157    H      0.901390000000     0.897290000000     0.834280000000     0.0496291  
H1158    H      0.821280000000     0.855700000000     0.846980000000     0.0393443  
H1159    H      0.897980000000     0.942950000000     0.970770000000     0.0410557  
H1160    H      0.884560000000     0.635620000000     0.831050000000     0.0426493  
H1161    H      0.952230000000     0.628850000000     0.911280000000     0.0360941  
H1162    H      0.889670000000     0.569170000000     0.912390000000     0.0406433  
H1163    H      0.836830000000     0.726130000000     0.845380000000     0.0394723  
H1164    H      0.975150000000     0.585620000000     0.915890000000     0.0438743  
H1165    H      0.818120000000     0.641990000000     0.851090000000     0.0361404  
H1166    H      0.879830000000     0.702470000000     0.849800000000     0.0355359  
H1167    H      0.792380000000     0.666760000000     0.815200000000     0.046524   
H1168    H      0.914630000000     0.544050000000     0.949240000000     0.0442891  
H1169    H      0.915170000000     0.604420000000     0.855090000000     0.0490639  
H1170    H      0.977690000000     0.603770000000     0.947140000000     0.0464795  
H1171    H      0.855270000000     0.666730000000     0.906960000000     0.0456363  
H1172    H      0.932690000000     0.623590000000     0.941630000000     0.0386223  
H1173    H      0.854700000000     0.727880000000     0.813870000000     0.0463991  
H1174    H      0.837550000000     0.647130000000     0.820640000000     0.0396353  
H1175    H      0.873670000000     0.682520000000     0.819880000000     0.0392945  
H1176    H      0.885890000000     0.635560000000     0.930990000000     0.0419633  
H1177    H      0.896540000000     0.588770000000     0.942150000000     0.0395085  
H1178    H      0.795150000000     0.685260000000     0.846270000000     0.0395973  
H1179    H      0.597890000000     0.918910000000     0.868200000000     0.0429549  
H1180    H      0.692850000000     0.885470000000     0.835990000000     0.0370698  
H1181    H      0.631970000000     0.824130000000     0.835410000000     0.0403424  
H1182    H      0.616560000000     0.945490000000     0.965290000000     0.0524821  
H1183    H      0.694060000000     0.866900000000     0.791140000000     0.0455187  
H1184    H      0.573610000000     0.883120000000     0.922190000000     0.0363365  
H1185    H      0.634540000000     0.944260000000     0.920250000000     0.0378987  
H1186    H      0.543450000000     0.913820000000     0.949630000000     0.0463418  
H1187    H      0.663160000000     0.793880000000     0.808070000000     0.0435596  
H1188    H      0.621210000000     0.895470000000     0.831080000000     0.0493147  
H1189    H      0.723860000000     0.855590000000     0.808820000000     0.0465747  
H1190    H      0.644670000000     0.872470000000     0.925620000000     0.0478043  
H1191    H      0.699650000000     0.852830000000     0.851210000000     0.0381372  
H1192    H      0.604630000000     0.975100000000     0.947740000000     0.0492913  
H1193    H      0.566440000000     0.915450000000     0.906480000000     0.0388622  
H1194    H      0.601610000000     0.950800000000     0.905420000000     0.0386457  
H1195    H      0.667880000000     0.848910000000     0.888510000000     0.0421081  
H1196    H      0.664580000000     0.817440000000     0.850430000000     0.038664   
H1197    H      0.573650000000     0.902540000000     0.966680000000     0.0442091  
H1198    H      0.887510000000     0.889160000000     0.581840000000     0.0424966  
H1199    H      0.878550000000     0.817230000000     0.658390000000     0.0362788  
H1200    H      0.819040000000     0.879860000000     0.661680000000     0.042109   
H1201    H      0.977800000000     0.936630000000     0.600400000000     0.0410415  
H1202    H      0.834880000000     0.794520000000     0.661320000000     0.0419885  
H1203    H      0.893810000000     0.954730000000     0.604650000000     0.0367252  
H1204    H      0.954430000000     0.893180000000     0.602730000000     0.0361174  
H1205    H      0.919530000000     0.981800000000     0.570350000000     0.0478522  
H1206    H      0.793230000000     0.853310000000     0.696910000000     0.047864   
H1207    H      0.855750000000     0.857440000000     0.603710000000     0.0484885  
H1208    H      0.852720000000     0.790040000000     0.692510000000     0.0473866  
H1209    H      0.916980000000     0.914550000000     0.659720000000     0.0476606  
H1210    H      0.873020000000     0.835220000000     0.689590000000     0.0417698  
H1211    H      0.980970000000     0.919570000000     0.568580000000     0.0479985  
H1212    H      0.899530000000     0.936430000000     0.573660000000     0.0401783  
H1213    H      0.935260000000     0.900220000000     0.572510000000     0.0398128  
H1214    H      0.885310000000     0.882750000000     0.681580000000     0.0457659  
H1215    H      0.838200000000     0.871570000000     0.691360000000     0.0460035  
H1216    H      0.937520000000     0.977540000000     0.601530000000     0.0407666  
N1       N      0.068910000000     0.067050000000     0.066690000000    -0.161863   
N2       N      0.100690000000     0.097200000000     0.103900000000    -0.110242   
N3       N      0.175320000000     0.171350000000     0.153280000000    -0.113396   
N4       N      0.205760000000     0.202000000000     0.191080000000    -0.162046   
N5       N      0.079900000000     0.020830000000     0.121930000000    -0.106017   
N6       N      0.077570000000     0.080600000000     0.462030000000    -0.164795   
N7       N      0.109280000000     0.112720000000     0.426490000000    -0.11095    
N8       N      0.159720000000     0.159180000000     0.333560000000    -0.113407   
N9       N      0.192220000000     0.190140000000     0.297840000000    -0.163869   
N10      N      0.139540000000     0.094040000000     0.498360000000    -0.107687   
N11      N      0.075450000000     0.446580000000     0.055440000000    -0.164164   
N12      N      0.109170000000     0.413840000000     0.087570000000    -0.110722   
N13      N      0.165470000000     0.356770000000     0.170140000000    -0.112084   
N14      N      0.198360000000     0.323120000000     0.202090000000    -0.161916   
N15      N      0.138560000000     0.441810000000     0.018630000000    -0.107256   
N16      N      0.453480000000     0.066700000000     0.069180000000    -0.163944   
N17      N      0.422710000000     0.097410000000     0.106530000000    -0.110953   
N18      N      0.347990000000     0.172210000000     0.154200000000    -0.11366    
N19      N      0.317450000000     0.202800000000     0.191720000000    -0.162828   
N20      N      0.496170000000     0.072670000000     0.127830000000    -0.106105   
N21      N      0.330750000000     0.327390000000     0.298320000000    -0.164926   
N22      N      0.362570000000     0.359490000000     0.333790000000    -0.110829   
N23      N      0.408950000000     0.410160000000     0.426630000000    -0.113269   
N24      N      0.440240000000     0.442180000000     0.462450000000    -0.163508   
N25      N      0.344040000000     0.389100000000     0.261630000000    -0.107433   
N26      N      0.450500000000     0.069150000000     0.446860000000    -0.16609    
N27      N      0.421010000000     0.098940000000     0.407980000000    -0.110989   
N28      N      0.349250000000     0.172040000000     0.354100000000    -0.113672   
N29      N      0.319640000000     0.201300000000     0.315010000000    -0.165176   
N30      N      0.441870000000     0.022450000000     0.391580000000    -0.107094   
N31      N      0.193120000000     0.325090000000     0.301350000000    -0.165587   
N32      N      0.159670000000     0.357590000000     0.334580000000    -0.110833   
N33      N      0.106850000000     0.410960000000     0.422130000000    -0.112672   
N34      N      0.074590000000     0.444120000000     0.455730000000    -0.163143   
N35      N      0.130930000000     0.333640000000     0.263840000000    -0.107412   
N36      N      0.318350000000     0.317540000000     0.193440000000    -0.162794   
N37      N      0.348970000000     0.348860000000     0.156220000000    -0.11068    
N38      N      0.423590000000     0.423310000000     0.107230000000    -0.113174   
N39      N      0.453890000000     0.454270000000     0.069560000000    -0.162042   
N40      N      0.272440000000     0.328690000000     0.137910000000    -0.1088     
N41      N      0.068910000000     0.067050000000     0.566690000000    -0.16185    
N42      N      0.100690000000     0.097200000000     0.603900000000    -0.110232   
N43      N      0.175320000000     0.171350000000     0.653280000000    -0.113376   
N44      N      0.205760000000     0.202000000000     0.691080000000    -0.162036   
N45      N      0.079900000000     0.020830000000     0.621930000000    -0.106034   
N46      N      0.077570000000     0.080600000000     0.962030000000    -0.164669   
N47      N      0.109280000000     0.112720000000     0.926490000000    -0.110919   
N48      N      0.159720000000     0.159180000000     0.833550000000    -0.113382   
N49      N      0.192220000000     0.190140000000     0.797840000000    -0.163871   
N50      N      0.139540000000     0.094040000000     0.998360000000    -0.10719    
N51      N      0.075450000000     0.446580000000     0.555440000000    -0.16414    
N52      N      0.109170000000     0.413840000000     0.587570000000    -0.110699   
N53      N      0.165470000000     0.356770000000     0.670150000000    -0.112057   
N54      N      0.198360000000     0.323120000000     0.702090000000    -0.161917   
N55      N      0.138560000000     0.441810000000     0.518630000000    -0.106743   
N56      N      0.453480000000     0.066700000000     0.569180000000    -0.163946   
N57      N      0.422710000000     0.097410000000     0.606530000000    -0.11094    
N58      N      0.347990000000     0.172210000000     0.654200000000    -0.113639   
N59      N      0.317450000000     0.202800000000     0.691710000000    -0.16276    
N60      N      0.496170000000     0.072670000000     0.627830000000    -0.106123   
N61      N      0.330750000000     0.327390000000     0.798320000000    -0.164927   
N62      N      0.362570000000     0.359490000000     0.833790000000    -0.110814   
N63      N      0.408950000000     0.410160000000     0.926630000000    -0.113232   
N64      N      0.440240000000     0.442180000000     0.962450000000    -0.16337    
N65      N      0.344040000000     0.389100000000     0.761630000000    -0.107443   
N66      N      0.450500000000     0.069150000000     0.946860000000    -0.165986   
N67      N      0.421010000000     0.098940000000     0.907980000000    -0.110988   
N68      N      0.349250000000     0.172040000000     0.854090000000    -0.11365    
N69      N      0.319640000000     0.201300000000     0.815010000000    -0.165175   
N70      N      0.441870000000     0.022450000000     0.891580000000    -0.107093   
N71      N      0.193120000000     0.325090000000     0.801340000000    -0.165629   
N72      N      0.159670000000     0.357590000000     0.834580000000    -0.110819   
N73      N      0.106850000000     0.410960000000     0.922130000000    -0.112631   
N74      N      0.074590000000     0.444120000000     0.955740000000    -0.163055   
N75      N      0.130930000000     0.333640000000     0.763840000000    -0.10742    
N76      N      0.318350000000     0.317540000000     0.693440000000    -0.162796   
N77      N      0.348970000000     0.348860000000     0.656210000000    -0.110663   
N78      N      0.423590000000     0.423310000000     0.607230000000    -0.113165   
N79      N      0.453890000000     0.454270000000     0.569560000000    -0.162047   
N80      N      0.272440000000     0.328690000000     0.637910000000    -0.108701   
N81      N      0.068910000000     0.567040000000     0.066690000000    -0.161893   
N82      N      0.100690000000     0.597200000000     0.103900000000    -0.110239   
N83      N      0.175320000000     0.671350000000     0.153280000000    -0.11339    
N84      N      0.205760000000     0.702010000000     0.191080000000    -0.162086   
N85      N      0.079900000000     0.520830000000     0.121930000000    -0.105903   
N86      N      0.077570000000     0.580600000000     0.462030000000    -0.164794   
N87      N      0.109280000000     0.612720000000     0.426490000000    -0.110935   
N88      N      0.159720000000     0.659180000000     0.333560000000    -0.113403   
N89      N      0.192220000000     0.690140000000     0.297840000000    -0.163868   
N90      N      0.139540000000     0.594040000000     0.498360000000    -0.107661   
N91      N      0.075450000000     0.946580000000     0.055440000000    -0.164142   
N92      N      0.109170000000     0.913840000000     0.087570000000    -0.110724   
N93      N      0.165470000000     0.856770000000     0.170140000000    -0.112093   
N94      N      0.198360000000     0.823120000000     0.202090000000    -0.16191    
N95      N      0.138560000000     0.941810000000     0.018630000000    -0.107219   
N96      N      0.453480000000     0.566700000000     0.069180000000    -0.163929   
N97      N      0.422710000000     0.597410000000     0.106530000000    -0.110948   
N98      N      0.347990000000     0.672210000000     0.154200000000    -0.113659   
N99      N      0.317450000000     0.702800000000     0.191720000000    -0.162828   
N100     N      0.496170000000     0.572670000000     0.127830000000    -0.106061   
N101     N      0.330750000000     0.827390000000     0.298320000000    -0.164924   
N102     N      0.362570000000     0.859490000000     0.333790000000    -0.110825   
N103     N      0.408950000000     0.910160000000     0.426630000000    -0.113245   
N104     N      0.440240000000     0.942180000000     0.462450000000    -0.163495   
N105     N      0.344040000000     0.889100000000     0.261630000000    -0.107402   
N106     N      0.450500000000     0.569150000000     0.446860000000    -0.166081   
N107     N      0.421010000000     0.598940000000     0.407980000000    -0.110985   
N108     N      0.349250000000     0.672040000000     0.354100000000    -0.11367    
N109     N      0.319640000000     0.701300000000     0.315010000000    -0.165176   
N110     N      0.441870000000     0.522450000000     0.391580000000    -0.106985   
N111     N      0.193120000000     0.825090000000     0.301350000000    -0.165586   
N112     N      0.159670000000     0.857590000000     0.334580000000    -0.11083    
N113     N      0.106850000000     0.910960000000     0.422130000000    -0.112685   
N114     N      0.074590000000     0.944120000000     0.455730000000    -0.163077   
N115     N      0.130930000000     0.833640000000     0.263840000000    -0.107405   
N116     N      0.318350000000     0.817540000000     0.193440000000    -0.162795   
N117     N      0.348970000000     0.848860000000     0.156220000000    -0.110679   
N118     N      0.423590000000     0.923310000000     0.107230000000    -0.113166   
N119     N      0.453890000000     0.954270000000     0.069560000000    -0.162014   
N120     N      0.272440000000     0.828690000000     0.137910000000    -0.108796   
N121     N      0.068910000000     0.567040000000     0.566690000000    -0.161879   
N122     N      0.100690000000     0.597200000000     0.603900000000    -0.110229   
N123     N      0.175320000000     0.671350000000     0.653280000000    -0.113371   
N124     N      0.205760000000     0.702010000000     0.691080000000    -0.162076   
N125     N      0.079900000000     0.520830000000     0.621930000000    -0.105919   
N126     N      0.077570000000     0.580600000000     0.962030000000    -0.164669   
N127     N      0.109280000000     0.612720000000     0.926490000000    -0.110904   
N128     N      0.159720000000     0.659180000000     0.833550000000    -0.113378   
N129     N      0.192220000000     0.690140000000     0.797840000000    -0.16387    
N130     N      0.139540000000     0.594040000000     0.998360000000    -0.107165   
N131     N      0.075450000000     0.946580000000     0.555440000000    -0.164119   
N132     N      0.109170000000     0.913840000000     0.587570000000    -0.110701   
N133     N      0.165470000000     0.856770000000     0.670150000000    -0.112066   
N134     N      0.198360000000     0.823120000000     0.702090000000    -0.161911   
N135     N      0.138560000000     0.941810000000     0.518630000000    -0.106706   
N136     N      0.453480000000     0.566700000000     0.569180000000    -0.163931   
N137     N      0.422710000000     0.597410000000     0.606530000000    -0.110934   
N138     N      0.347990000000     0.672210000000     0.654200000000    -0.113638   
N139     N      0.317450000000     0.702800000000     0.691710000000    -0.16276    
N140     N      0.496170000000     0.572670000000     0.627830000000    -0.106079   
N141     N      0.330750000000     0.827390000000     0.798320000000    -0.164925   
N142     N      0.362570000000     0.859490000000     0.833790000000    -0.11081    
N143     N      0.408950000000     0.910160000000     0.926630000000    -0.113208   
N144     N      0.440240000000     0.942180000000     0.962450000000    -0.163358   
N145     N      0.344040000000     0.889100000000     0.761630000000    -0.107412   
N146     N      0.450500000000     0.569150000000     0.946860000000    -0.165977   
N147     N      0.421010000000     0.598940000000     0.907980000000    -0.110984   
N148     N      0.349250000000     0.672040000000     0.854090000000    -0.113649   
N149     N      0.319640000000     0.701300000000     0.815010000000    -0.165175   
N150     N      0.441870000000     0.522450000000     0.891580000000    -0.106984   
N151     N      0.193120000000     0.825090000000     0.801340000000    -0.165628   
N152     N      0.159670000000     0.857590000000     0.834580000000    -0.110816   
N153     N      0.106850000000     0.910960000000     0.922130000000    -0.112643   
N154     N      0.074590000000     0.944120000000     0.955740000000    -0.162989   
N155     N      0.130930000000     0.833640000000     0.763840000000    -0.107413   
N156     N      0.318350000000     0.817540000000     0.693440000000    -0.162796   
N157     N      0.348970000000     0.848860000000     0.656210000000    -0.110662   
N158     N      0.423590000000     0.923310000000     0.607230000000    -0.113157   
N159     N      0.453890000000     0.954270000000     0.569560000000    -0.162019   
N160     N      0.272440000000     0.828690000000     0.637910000000    -0.108697   
N161     N      0.568910000000     0.067050000000     0.066690000000    -0.161844   
N162     N      0.600690000000     0.097200000000     0.103900000000    -0.110234   
N163     N      0.675320000000     0.171350000000     0.153280000000    -0.113392   
N164     N      0.705760000000     0.202000000000     0.191080000000    -0.162055   
N165     N      0.579900000000     0.020830000000     0.121930000000    -0.105952   
N166     N      0.577570000000     0.080600000000     0.462030000000    -0.164782   
N167     N      0.609280000000     0.112720000000     0.426490000000    -0.110947   
N168     N      0.659720000000     0.159180000000     0.333560000000    -0.11341    
N169     N      0.692220000000     0.190140000000     0.297840000000    -0.163875   
N170     N      0.639540000000     0.094040000000     0.498360000000    -0.107686   
N171     N      0.575450000000     0.446580000000     0.055440000000    -0.164162   
N172     N      0.609170000000     0.413840000000     0.087570000000    -0.110723   
N173     N      0.665470000000     0.356770000000     0.170140000000    -0.112083   
N174     N      0.698360000000     0.323120000000     0.202090000000    -0.161922   
N175     N      0.638560000000     0.441810000000     0.018630000000    -0.107259   
N176     N      0.953480000000     0.066700000000     0.069180000000    -0.163876   
N177     N      0.922720000000     0.097410000000     0.106530000000    -0.110934   
N178     N      0.847990000000     0.172210000000     0.154200000000    -0.113648   
N179     N      0.817450000000     0.202800000000     0.191720000000    -0.162834   
N180     N      0.996170000000     0.072670000000     0.127830000000    -0.105951   
N181     N      0.830750000000     0.327390000000     0.298320000000    -0.164932   
N182     N      0.862570000000     0.359490000000     0.333790000000    -0.110812   
N183     N      0.908950000000     0.410160000000     0.426630000000    -0.113266   
N184     N      0.940240000000     0.442180000000     0.462450000000    -0.163456   
N185     N      0.844040000000     0.389100000000     0.261630000000    -0.107421   
N186     N      0.950500000000     0.069150000000     0.446860000000    -0.166068   
N187     N      0.921010000000     0.098940000000     0.407980000000    -0.110966   
N188     N      0.849250000000     0.172040000000     0.354100000000    -0.113669   
N189     N      0.819640000000     0.201300000000     0.315010000000    -0.165181   
N190     N      0.941870000000     0.022450000000     0.391580000000    -0.107037   
N191     N      0.693120000000     0.325090000000     0.301350000000    -0.165594   
N192     N      0.659670000000     0.357590000000     0.334580000000    -0.110837   
N193     N      0.606850000000     0.410960000000     0.422130000000    -0.11267    
N194     N      0.574590000000     0.444120000000     0.455730000000    -0.163133   
N195     N      0.630930000000     0.333640000000     0.263840000000    -0.107376   
N196     N      0.818350000000     0.317540000000     0.193440000000    -0.162797   
N197     N      0.848970000000     0.348860000000     0.156220000000    -0.110679   
N198     N      0.923590000000     0.423310000000     0.107230000000    -0.113165   
N199     N      0.953890000000     0.454270000000     0.069560000000    -0.162012   
N200     N      0.772440000000     0.328690000000     0.137910000000    -0.108803   
N201     N      0.568910000000     0.067050000000     0.566690000000    -0.161831   
N202     N      0.600690000000     0.097200000000     0.603900000000    -0.110224   
N203     N      0.675320000000     0.171350000000     0.653280000000    -0.113373   
N204     N      0.705760000000     0.202000000000     0.691080000000    -0.162045   
N205     N      0.579900000000     0.020830000000     0.621930000000    -0.105969   
N206     N      0.577570000000     0.080600000000     0.962030000000    -0.164657   
N207     N      0.609280000000     0.112720000000     0.926490000000    -0.110916   
N208     N      0.659720000000     0.159180000000     0.833550000000    -0.113385   
N209     N      0.692220000000     0.190140000000     0.797840000000    -0.163877   
N210     N      0.639540000000     0.094040000000     0.998360000000    -0.10719    
N211     N      0.575450000000     0.446580000000     0.555440000000    -0.164139   
N212     N      0.609170000000     0.413840000000     0.587570000000    -0.1107     
N213     N      0.665470000000     0.356770000000     0.670150000000    -0.112055   
N214     N      0.698360000000     0.323120000000     0.702090000000    -0.161923   
N215     N      0.638560000000     0.441810000000     0.518630000000    -0.106745   
N216     N      0.953480000000     0.066700000000     0.569180000000    -0.163878   
N217     N      0.922720000000     0.097410000000     0.606530000000    -0.11092    
N218     N      0.847990000000     0.172210000000     0.654200000000    -0.113626   
N219     N      0.817450000000     0.202800000000     0.691710000000    -0.162765   
N220     N      0.996170000000     0.072670000000     0.627830000000    -0.105969   
N221     N      0.830750000000     0.327390000000     0.798320000000    -0.164933   
N222     N      0.862570000000     0.359490000000     0.833790000000    -0.110797   
N223     N      0.908950000000     0.410160000000     0.926630000000    -0.113229   
N224     N      0.940240000000     0.442180000000     0.962450000000    -0.163319   
N225     N      0.844040000000     0.389100000000     0.761630000000    -0.107431   
N226     N      0.950500000000     0.069150000000     0.946860000000    -0.165964   
N227     N      0.921010000000     0.098940000000     0.907980000000    -0.110965   
N228     N      0.849250000000     0.172040000000     0.854090000000    -0.113647   
N229     N      0.819640000000     0.201300000000     0.815010000000    -0.16518    
N230     N      0.941870000000     0.022450000000     0.891580000000    -0.107036   
N231     N      0.693120000000     0.325090000000     0.801340000000    -0.165635   
N232     N      0.659670000000     0.357590000000     0.834580000000    -0.110822   
N233     N      0.606850000000     0.410960000000     0.922130000000    -0.112628   
N234     N      0.574590000000     0.444120000000     0.955740000000    -0.163045   
N235     N      0.630930000000     0.333640000000     0.763840000000    -0.107384   
N236     N      0.818350000000     0.317540000000     0.693440000000    -0.162798   
N237     N      0.848970000000     0.348860000000     0.656210000000    -0.110662   
N238     N      0.923590000000     0.423310000000     0.607230000000    -0.113156   
N239     N      0.953890000000     0.454270000000     0.569560000000    -0.162017   
N240     N      0.772440000000     0.328690000000     0.637910000000    -0.108705   
N241     N      0.568910000000     0.567040000000     0.066690000000    -0.161874   
N242     N      0.600690000000     0.597200000000     0.103900000000    -0.110231   
N243     N      0.675320000000     0.671350000000     0.153280000000    -0.113387   
N244     N      0.705760000000     0.702010000000     0.191080000000    -0.162095   
N245     N      0.579900000000     0.520830000000     0.121930000000    -0.105838   
N246     N      0.577570000000     0.580600000000     0.462030000000    -0.164781   
N247     N      0.609280000000     0.612720000000     0.426490000000    -0.110932   
N248     N      0.659720000000     0.659180000000     0.333560000000    -0.113406   
N249     N      0.692220000000     0.690140000000     0.297840000000    -0.163875   
N250     N      0.639540000000     0.594040000000     0.498360000000    -0.107661   
N251     N      0.575450000000     0.946580000000     0.055440000000    -0.16414    
N252     N      0.609170000000     0.913840000000     0.087570000000    -0.110725   
N253     N      0.665470000000     0.856770000000     0.170140000000    -0.112092   
N254     N      0.698360000000     0.823120000000     0.202090000000    -0.161916   
N255     N      0.638560000000     0.941810000000     0.018630000000    -0.107222   
N256     N      0.953480000000     0.566700000000     0.069180000000    -0.163862   
N257     N      0.922720000000     0.597410000000     0.106530000000    -0.110928   
N258     N      0.847990000000     0.672210000000     0.154200000000    -0.113646   
N259     N      0.817450000000     0.702800000000     0.191720000000    -0.162834   
N260     N      0.996170000000     0.572670000000     0.127830000000    -0.105907   
N261     N      0.830750000000     0.827390000000     0.298320000000    -0.16493    
N262     N      0.862570000000     0.859490000000     0.333790000000    -0.110808   
N263     N      0.908950000000     0.910160000000     0.426630000000    -0.113242   
N264     N      0.940240000000     0.942180000000     0.462450000000    -0.163443   
N265     N      0.844040000000     0.889100000000     0.261630000000    -0.10739    
N266     N      0.950500000000     0.569150000000     0.446860000000    -0.166058   
N267     N      0.921010000000     0.598940000000     0.407980000000    -0.110962   
N268     N      0.849250000000     0.672040000000     0.354100000000    -0.113668   
N269     N      0.819640000000     0.701300000000     0.315010000000    -0.165181   
N270     N      0.941870000000     0.522450000000     0.391580000000    -0.106928   
N271     N      0.693120000000     0.825090000000     0.301350000000    -0.165592   
N272     N      0.659670000000     0.857590000000     0.334580000000    -0.110833   
N273     N      0.606850000000     0.910960000000     0.422130000000    -0.112682   
N274     N      0.574590000000     0.944120000000     0.455730000000    -0.163067   
N275     N      0.630930000000     0.833640000000     0.263840000000    -0.107369   
N276     N      0.818350000000     0.817540000000     0.193440000000    -0.162797   
N277     N      0.848970000000     0.848860000000     0.156220000000    -0.110678   
N278     N      0.923590000000     0.923310000000     0.107230000000    -0.113157   
N279     N      0.953890000000     0.954270000000     0.069560000000    -0.161984   
N280     N      0.772440000000     0.828690000000     0.137910000000    -0.108799   
N281     N      0.568910000000     0.567040000000     0.566690000000    -0.16186    
N282     N      0.600690000000     0.597200000000     0.603900000000    -0.110221   
N283     N      0.675320000000     0.671350000000     0.653280000000    -0.113367   
N284     N      0.705760000000     0.702010000000     0.691080000000    -0.162085   
N285     N      0.579900000000     0.520830000000     0.621930000000    -0.105854   
N286     N      0.577570000000     0.580600000000     0.962030000000    -0.164656   
N287     N      0.609280000000     0.612720000000     0.926490000000    -0.110901   
N288     N      0.659720000000     0.659180000000     0.833550000000    -0.113381   
N289     N      0.692220000000     0.690140000000     0.797840000000    -0.163876   
N290     N      0.639540000000     0.594040000000     0.998360000000    -0.107164   
N291     N      0.575450000000     0.946580000000     0.555440000000    -0.164117   
N292     N      0.609170000000     0.913840000000     0.587570000000    -0.110702   
N293     N      0.665470000000     0.856770000000     0.670150000000    -0.112064   
N294     N      0.698360000000     0.823120000000     0.702090000000    -0.161917   
N295     N      0.638560000000     0.941810000000     0.518630000000    -0.106709   
N296     N      0.953480000000     0.566700000000     0.569180000000    -0.163864   
N297     N      0.922720000000     0.597410000000     0.606530000000    -0.110915   
N298     N      0.847990000000     0.672210000000     0.654200000000    -0.113625   
N299     N      0.817450000000     0.702800000000     0.691710000000    -0.162765   
N300     N      0.996170000000     0.572670000000     0.627830000000    -0.105925   
N301     N      0.830750000000     0.827390000000     0.798320000000    -0.164931   
N302     N      0.862570000000     0.859490000000     0.833790000000    -0.110793   
N303     N      0.908950000000     0.910160000000     0.926630000000    -0.113205   
N304     N      0.940240000000     0.942180000000     0.962450000000    -0.163306   
N305     N      0.844040000000     0.889100000000     0.761630000000    -0.1074     
N306     N      0.950500000000     0.569150000000     0.946860000000    -0.165955   
N307     N      0.921010000000     0.598940000000     0.907980000000    -0.110961   
N308     N      0.849250000000     0.672040000000     0.854090000000    -0.113646   
N309     N      0.819640000000     0.701300000000     0.815010000000    -0.16518    
N310     N      0.941870000000     0.522450000000     0.891580000000    -0.106927   
N311     N      0.693120000000     0.825090000000     0.801340000000    -0.165634   
N312     N      0.659670000000     0.857590000000     0.834580000000    -0.110819   
N313     N      0.606850000000     0.910960000000     0.922130000000    -0.11264    
N314     N      0.574590000000     0.944120000000     0.955740000000    -0.162979   
N315     N      0.630930000000     0.833640000000     0.763840000000    -0.107377   
N316     N      0.818350000000     0.817540000000     0.693440000000    -0.162798   
N317     N      0.848970000000     0.848860000000     0.656210000000    -0.110661   
N318     N      0.923590000000     0.923310000000     0.607230000000    -0.113148   
N319     N      0.953890000000     0.954270000000     0.569560000000    -0.161989   
N320     N      0.772440000000     0.828690000000     0.637910000000    -0.108701   
O1       O      0.455370000000     0.488390000000     0.038120000000    -0.36058    
O2       O      0.065380000000     0.033220000000     0.035130000000    -0.362071   
O3       O      0.036170000000     0.452910000000     0.031490000000    -0.364333   
O4       O      0.487420000000     0.064720000000     0.037600000000    -0.367238   
O5       O      0.068040000000     0.485140000000     0.030810000000    -0.36128    
O6       O      0.455040000000     0.033030000000     0.037370000000    -0.366647   
O7       O      0.033060000000     0.064890000000     0.037080000000    -0.359158   
O8       O      0.487450000000     0.456420000000     0.037520000000    -0.366856   
O9       O      0.453450000000     0.034350000000     0.477280000000    -0.370008   
O10      O      0.067750000000     0.483700000000     0.479060000000    -0.363935   
O11      O      0.480540000000     0.450360000000     0.484210000000    -0.36642    
O12      O      0.037290000000     0.071700000000     0.483800000000    -0.361399   
O13      O      0.069510000000     0.039860000000     0.482940000000    -0.364637   
O14      O      0.448730000000     0.482610000000     0.483940000000    -0.362276   
O15      O      0.485700000000     0.066190000000     0.476950000000    -0.370792   
O16      O      0.035810000000     0.451560000000     0.480260000000    -0.363734   
O17      O      0.509310000000     0.510620000000     0.994030000000    -0.583893   
O18      O      0.284280000000     0.314450000000     0.224840000000    -0.362236   
O19      O      0.239520000000     0.204040000000     0.222940000000    -0.358837   
O20      O      0.315620000000     0.236680000000     0.223280000000    -0.367627   
O21      O      0.204330000000     0.284490000000     0.227010000000    -0.362422   
O22      O      0.283830000000     0.204390000000     0.223610000000    -0.366193   
O23      O      0.236130000000     0.316770000000     0.228210000000    -0.361926   
O24      O      0.207540000000     0.236120000000     0.222520000000    -0.365347   
O25      O      0.315870000000     0.282030000000     0.223370000000    -0.359899   
O26      O      0.233490000000     0.317700000000     0.279430000000    -0.36582    
O27      O      0.284810000000     0.203710000000     0.284510000000    -0.371726   
O28      O      0.322190000000     0.286970000000     0.276770000000    -0.361724   
O29      O      0.200850000000     0.230220000000     0.275920000000    -0.366178   
O30      O      0.232980000000     0.198290000000     0.276740000000    -0.363243   
O31      O      0.290170000000     0.319020000000     0.277130000000    -0.365969   
O32      O      0.201520000000     0.285590000000     0.278350000000    -0.363182   
O33      O      0.316990000000     0.235620000000     0.284010000000    -0.370778   
O34      O      0.261230000000     0.258840000000     0.266350000000    -0.586829   
O35      O      0.455370000000     0.488390000000     0.538120000000    -0.360662   
O36      O      0.065380000000     0.033220000000     0.535130000000    -0.362141   
O37      O      0.036170000000     0.452910000000     0.531490000000    -0.364366   
O38      O      0.487420000000     0.064720000000     0.537600000000    -0.367362   
O39      O      0.068040000000     0.485140000000     0.530810000000    -0.361333   
O40      O      0.455040000000     0.033030000000     0.537370000000    -0.366768   
O41      O      0.033060000000     0.064890000000     0.537080000000    -0.359234   
O42      O      0.487450000000     0.456420000000     0.537520000000    -0.366945   
O43      O      0.453450000000     0.034350000000     0.977280000000    -0.368998   
O44      O      0.067750000000     0.483700000000     0.979060000000    -0.362889   
O45      O      0.480540000000     0.450360000000     0.984210000000    -0.365366   
O46      O      0.037290000000     0.071700000000     0.983800000000    -0.360343   
O47      O      0.069510000000     0.039860000000     0.982940000000    -0.363567   
O48      O      0.448730000000     0.482610000000     0.983930000000    -0.361215   
O49      O      0.485700000000     0.066190000000     0.976950000000    -0.3698     
O50      O      0.035810000000     0.451560000000     0.980260000000    -0.362694   
O51      O      0.509310000000     0.510620000000     0.494030000000    -0.586328   
O52      O      0.284280000000     0.314450000000     0.724840000000    -0.362238   
O53      O      0.239520000000     0.204040000000     0.722940000000    -0.35884    
O54      O      0.315620000000     0.236680000000     0.723280000000    -0.367603   
O55      O      0.204330000000     0.284490000000     0.727000000000    -0.362404   
O56      O      0.283830000000     0.204390000000     0.723610000000    -0.366169   
O57      O      0.236130000000     0.316770000000     0.728210000000    -0.361947   
O58      O      0.207540000000     0.236120000000     0.722520000000    -0.365342   
O59      O      0.315870000000     0.282030000000     0.723370000000    -0.359902   
O60      O      0.233490000000     0.317700000000     0.779430000000    -0.365818   
O61      O      0.284810000000     0.203710000000     0.784510000000    -0.371727   
O62      O      0.322190000000     0.286970000000     0.776770000000    -0.361725   
O63      O      0.200850000000     0.230220000000     0.775920000000    -0.36618    
O64      O      0.232980000000     0.198290000000     0.776740000000    -0.363245   
O65      O      0.290170000000     0.319020000000     0.777130000000    -0.365969   
O66      O      0.201520000000     0.285590000000     0.778340000000    -0.363205   
O67      O      0.316990000000     0.235620000000     0.784010000000    -0.370778   
O68      O      0.261230000000     0.258840000000     0.766350000000    -0.586823   
O69      O      0.455370000000     0.988390000000     0.038120000000    -0.360303   
O70      O      0.065380000000     0.533220000000     0.035130000000    -0.362037   
O71      O      0.036170000000     0.952910000000     0.031490000000    -0.364327   
O72      O      0.487420000000     0.564720000000     0.037600000000    -0.367231   
O73      O      0.068040000000     0.985140000000     0.030810000000    -0.361014   
O74      O      0.455040000000     0.533030000000     0.037370000000    -0.366588   
O75      O      0.033060000000     0.564890000000     0.037080000000    -0.35917    
O76      O      0.487450000000     0.956420000000     0.037520000000    -0.36684    
O77      O      0.453450000000     0.534350000000     0.477280000000    -0.369981   
O78      O      0.067750000000     0.983700000000     0.479060000000    -0.363811   
O79      O      0.480540000000     0.950360000000     0.484210000000    -0.366413   
O80      O      0.037290000000     0.571700000000     0.483800000000    -0.361399   
O81      O      0.069510000000     0.539860000000     0.482940000000    -0.364621   
O82      O      0.448730000000     0.982610000000     0.483940000000    -0.362015   
O83      O      0.485700000000     0.566190000000     0.476950000000    -0.370789   
O84      O      0.035810000000     0.951560000000     0.480260000000    -0.363701   
O85      O      0.509310000000     0.010620000000     0.994030000000    -0.584003   
O86      O      0.284280000000     0.814450000000     0.224840000000    -0.362234   
O87      O      0.239520000000     0.704040000000     0.222940000000    -0.358853   
O88      O      0.315620000000     0.736680000000     0.223280000000    -0.367627   
O89      O      0.204330000000     0.784490000000     0.227010000000    -0.362421   
O90      O      0.283830000000     0.704390000000     0.223610000000    -0.366189   
O91      O      0.236130000000     0.816770000000     0.228210000000    -0.361924   
O92      O      0.207540000000     0.736120000000     0.222520000000    -0.36536    
O93      O      0.315870000000     0.782030000000     0.223370000000    -0.3599     
O94      O      0.233490000000     0.817700000000     0.279430000000    -0.365817   
O95      O      0.284810000000     0.703710000000     0.284510000000    -0.371724   
O96      O      0.322190000000     0.786970000000     0.276770000000    -0.361725   
O97      O      0.200850000000     0.730220000000     0.275920000000    -0.36618    
O98      O      0.232980000000     0.698290000000     0.276740000000    -0.36324    
O99      O      0.290170000000     0.819020000000     0.277130000000    -0.365966   
O100     O      0.201520000000     0.785590000000     0.278350000000    -0.363184   
O101     O      0.316990000000     0.735620000000     0.284010000000    -0.370779   
O102     O      0.261230000000     0.758840000000     0.266350000000    -0.586831   
O103     O      0.455370000000     0.988390000000     0.538120000000    -0.360386   
O104     O      0.065380000000     0.533220000000     0.535130000000    -0.362108   
O105     O      0.036170000000     0.952910000000     0.531490000000    -0.36436    
O106     O      0.487420000000     0.564720000000     0.537600000000    -0.367354   
O107     O      0.068040000000     0.985140000000     0.530810000000    -0.361068   
O108     O      0.455040000000     0.533030000000     0.537370000000    -0.36671    
O109     O      0.033060000000     0.564890000000     0.537080000000    -0.359245   
O110     O      0.487450000000     0.956420000000     0.537520000000    -0.366929   
O111     O      0.453450000000     0.534350000000     0.977280000000    -0.368971   
O112     O      0.067750000000     0.983700000000     0.979060000000    -0.362768   
O113     O      0.480540000000     0.950360000000     0.984210000000    -0.365362   
O114     O      0.037290000000     0.571700000000     0.983800000000    -0.360342   
O115     O      0.069510000000     0.539860000000     0.982940000000    -0.36355    
O116     O      0.448730000000     0.982610000000     0.983930000000    -0.360957   
O117     O      0.485700000000     0.566190000000     0.976950000000    -0.369796   
O118     O      0.035810000000     0.951560000000     0.980260000000    -0.362664   
O119     O      0.509310000000     0.010620000000     0.494030000000    -0.586437   
O120     O      0.284280000000     0.814450000000     0.724840000000    -0.362236   
O121     O      0.239520000000     0.704040000000     0.722940000000    -0.358855   
O122     O      0.315620000000     0.736680000000     0.723280000000    -0.367603   
O123     O      0.204330000000     0.784490000000     0.727000000000    -0.362403   
O124     O      0.283830000000     0.704390000000     0.723610000000    -0.366166   
O125     O      0.236130000000     0.816770000000     0.728210000000    -0.361944   
O126     O      0.207540000000     0.736120000000     0.722520000000    -0.365354   
O127     O      0.315870000000     0.782030000000     0.723370000000    -0.359903   
O128     O      0.233490000000     0.817700000000     0.779430000000    -0.365815   
O129     O      0.284810000000     0.703710000000     0.784510000000    -0.371725   
O130     O      0.322190000000     0.786970000000     0.776770000000    -0.361727   
O131     O      0.200850000000     0.730220000000     0.775920000000    -0.366182   
O132     O      0.232980000000     0.698290000000     0.776740000000    -0.363242   
O133     O      0.290170000000     0.819020000000     0.777130000000    -0.365966   
O134     O      0.201520000000     0.785590000000     0.778340000000    -0.363207   
O135     O      0.316990000000     0.735620000000     0.784010000000    -0.370779   
O136     O      0.261230000000     0.758840000000     0.766350000000    -0.586825   
O137     O      0.955370000000     0.488390000000     0.038120000000    -0.360564   
O138     O      0.565380000000     0.033220000000     0.035130000000    -0.362063   
O139     O      0.536170000000     0.452910000000     0.031490000000    -0.364283   
O140     O      0.987430000000     0.064720000000     0.037600000000    -0.36676    
O141     O      0.568040000000     0.485140000000     0.030810000000    -0.361274   
O142     O      0.955040000000     0.033030000000     0.037370000000    -0.366565   
O143     O      0.533060000000     0.064890000000     0.037080000000    -0.359099   
O144     O      0.987450000000     0.456420000000     0.037520000000    -0.366512   
O145     O      0.953450000000     0.034350000000     0.477280000000    -0.36999    
O146     O      0.567750000000     0.483700000000     0.479060000000    -0.363928   
O147     O      0.980540000000     0.450360000000     0.484210000000    -0.366071   
O148     O      0.537290000000     0.071700000000     0.483800000000    -0.361355   
O149     O      0.569510000000     0.039860000000     0.482940000000    -0.364631   
O150     O      0.948720000000     0.482610000000     0.483940000000    -0.362145   
O151     O      0.985700000000     0.066190000000     0.476950000000    -0.370449   
O152     O      0.535810000000     0.451560000000     0.480260000000    -0.363704   
O153     O      0.009310000000     0.510620000000     0.994030000000    -0.58404    
O154     O      0.784280000000     0.314450000000     0.224840000000    -0.362249   
O155     O      0.739520000000     0.204040000000     0.222940000000    -0.358851   
O156     O      0.815620000000     0.236680000000     0.223280000000    -0.367684   
O157     O      0.704330000000     0.284490000000     0.227010000000    -0.362488   
O158     O      0.783830000000     0.204390000000     0.223610000000    -0.366206   
O159     O      0.736130000000     0.316770000000     0.228210000000    -0.361942   
O160     O      0.707540000000     0.236120000000     0.222520000000    -0.365401   
O161     O      0.815870000000     0.282030000000     0.223370000000    -0.359954   
O162     O      0.733490000000     0.317700000000     0.279430000000    -0.365839   
O163     O      0.784810000000     0.203710000000     0.284510000000    -0.371745   
O164     O      0.822190000000     0.286970000000     0.276770000000    -0.361798   
O165     O      0.700850000000     0.230220000000     0.275920000000    -0.366255   
O166     O      0.732980000000     0.198290000000     0.276740000000    -0.363263   
O167     O      0.790170000000     0.319020000000     0.277130000000    -0.365988   
O168     O      0.701520000000     0.285590000000     0.278350000000    -0.363259   
O169     O      0.816990000000     0.235620000000     0.284010000000    -0.370843   
O170     O      0.761230000000     0.258840000000     0.266350000000    -0.586724   
O171     O      0.955370000000     0.488390000000     0.538120000000    -0.360646   
O172     O      0.565380000000     0.033220000000     0.535130000000    -0.362134   
O173     O      0.536170000000     0.452910000000     0.531490000000    -0.364316   
O174     O      0.987430000000     0.064720000000     0.537600000000    -0.366884   
O175     O      0.568040000000     0.485140000000     0.530810000000    -0.361328   
O176     O      0.955040000000     0.033030000000     0.537370000000    -0.366687   
O177     O      0.533060000000     0.064890000000     0.537080000000    -0.359175   
O178     O      0.987450000000     0.456420000000     0.537520000000    -0.366602   
O179     O      0.953450000000     0.034350000000     0.977280000000    -0.368982   
O180     O      0.567750000000     0.483700000000     0.979060000000    -0.362882   
O181     O      0.980540000000     0.450360000000     0.984210000000    -0.36502    
O182     O      0.537290000000     0.071700000000     0.983800000000    -0.360298   
O183     O      0.569510000000     0.039860000000     0.982940000000    -0.36356    
O184     O      0.948720000000     0.482610000000     0.983930000000    -0.361086   
O185     O      0.985700000000     0.066190000000     0.976950000000    -0.369459   
O186     O      0.535810000000     0.451560000000     0.980260000000    -0.362663   
O187     O      0.009310000000     0.510620000000     0.494030000000    -0.586474   
O188     O      0.784280000000     0.314450000000     0.724840000000    -0.362251   
O189     O      0.739520000000     0.204040000000     0.722940000000    -0.358853   
O190     O      0.815620000000     0.236680000000     0.723280000000    -0.36766    
O191     O      0.704330000000     0.284490000000     0.727000000000    -0.362469   
O192     O      0.783830000000     0.204390000000     0.723610000000    -0.366183   
O193     O      0.736130000000     0.316770000000     0.728210000000    -0.361962   
O194     O      0.707540000000     0.236120000000     0.722520000000    -0.365396   
O195     O      0.815870000000     0.282030000000     0.723370000000    -0.359957   
O196     O      0.733490000000     0.317700000000     0.779430000000    -0.365838   
O197     O      0.784810000000     0.203710000000     0.784510000000    -0.371745   
O198     O      0.822190000000     0.286970000000     0.776770000000    -0.3618     
O199     O      0.700850000000     0.230220000000     0.775920000000    -0.366258   
O200     O      0.732980000000     0.198290000000     0.776740000000    -0.363264   
O201     O      0.790170000000     0.319020000000     0.777130000000    -0.365988   
O202     O      0.701520000000     0.285590000000     0.778340000000    -0.363282   
O203     O      0.816990000000     0.235620000000     0.784010000000    -0.370843   
O204     O      0.761230000000     0.258840000000     0.766350000000    -0.586718   
O205     O      0.955370000000     0.988390000000     0.038120000000    -0.360287   
O206     O      0.565380000000     0.533220000000     0.035130000000    -0.362029   
O207     O      0.536170000000     0.952910000000     0.031490000000    -0.364277   
O208     O      0.987430000000     0.564720000000     0.037600000000    -0.366752   
O209     O      0.568040000000     0.985140000000     0.030810000000    -0.361008   
O210     O      0.955040000000     0.533030000000     0.037370000000    -0.366506   
O211     O      0.533060000000     0.564890000000     0.037080000000    -0.35911    
O212     O      0.987450000000     0.956420000000     0.037520000000    -0.366497   
O213     O      0.953450000000     0.534350000000     0.477280000000    -0.369963   
O214     O      0.567750000000     0.983700000000     0.479060000000    -0.363804   
O215     O      0.980540000000     0.950360000000     0.484210000000    -0.366065   
O216     O      0.537290000000     0.571700000000     0.483800000000    -0.361355   
O217     O      0.569510000000     0.539860000000     0.482940000000    -0.364615   
O218     O      0.948720000000     0.982610000000     0.483940000000    -0.361884   
O219     O      0.985700000000     0.566190000000     0.476950000000    -0.370445   
O220     O      0.535810000000     0.951560000000     0.480260000000    -0.363671   
O221     O      0.009310000000     0.010620000000     0.994030000000    -0.58415    
O222     O      0.784280000000     0.814450000000     0.224840000000    -0.362247   
O223     O      0.739520000000     0.704040000000     0.222940000000    -0.358866   
O224     O      0.815620000000     0.736680000000     0.223280000000    -0.367684   
O225     O      0.704330000000     0.784490000000     0.227010000000    -0.362487   
O226     O      0.783830000000     0.704390000000     0.223610000000    -0.366203   
O227     O      0.736130000000     0.816770000000     0.228210000000    -0.361939   
O228     O      0.707540000000     0.736120000000     0.222520000000    -0.365414   
O229     O      0.815870000000     0.782030000000     0.223370000000    -0.359956   
O230     O      0.733490000000     0.817700000000     0.279430000000    -0.365836   
O231     O      0.784810000000     0.703710000000     0.284510000000    -0.371742   
O232     O      0.822190000000     0.786970000000     0.276770000000    -0.3618     
O233     O      0.700850000000     0.730220000000     0.275920000000    -0.366257   
O234     O      0.732980000000     0.698290000000     0.276740000000    -0.36326    
O235     O      0.790170000000     0.819020000000     0.277130000000    -0.365985   
O236     O      0.701520000000     0.785590000000     0.278350000000    -0.36326    
O237     O      0.816990000000     0.735620000000     0.284010000000    -0.370844   
O238     O      0.761230000000     0.758840000000     0.266350000000    -0.586726   
O239     O      0.955370000000     0.988390000000     0.538120000000    -0.36037    
O240     O      0.565380000000     0.533220000000     0.535130000000    -0.3621     
O241     O      0.536170000000     0.952910000000     0.531490000000    -0.36431    
O242     O      0.987430000000     0.564720000000     0.537600000000    -0.366876   
O243     O      0.568040000000     0.985140000000     0.530810000000    -0.361063   
O244     O      0.955040000000     0.533030000000     0.537370000000    -0.366628   
O245     O      0.533060000000     0.564890000000     0.537080000000    -0.359186   
O246     O      0.987450000000     0.956420000000     0.537520000000    -0.366587   
O247     O      0.953450000000     0.534350000000     0.977280000000    -0.368954   
O248     O      0.567750000000     0.983700000000     0.979060000000    -0.362761   
O249     O      0.980540000000     0.950360000000     0.984210000000    -0.365016   
O250     O      0.537290000000     0.571700000000     0.983800000000    -0.360298   
O251     O      0.569510000000     0.539860000000     0.982940000000    -0.363543   
O252     O      0.948720000000     0.982610000000     0.983930000000    -0.360828   
O253     O      0.985700000000     0.566190000000     0.976950000000    -0.369455   
O254     O      0.535810000000     0.951560000000     0.980260000000    -0.362633   
O255     O      0.009310000000     0.010620000000     0.494030000000    -0.586582   
O256     O      0.784280000000     0.814450000000     0.724840000000    -0.36225    
O257     O      0.739520000000     0.704040000000     0.722940000000    -0.358869   
O258     O      0.815620000000     0.736680000000     0.723280000000    -0.36766    
O259     O      0.704330000000     0.784490000000     0.727000000000    -0.362469   
O260     O      0.783830000000     0.704390000000     0.723610000000    -0.366179   
O261     O      0.736130000000     0.816770000000     0.728210000000    -0.361959   
O262     O      0.707540000000     0.736120000000     0.722520000000    -0.365409   
O263     O      0.815870000000     0.782030000000     0.723370000000    -0.359958   
O264     O      0.733490000000     0.817700000000     0.779430000000    -0.365835   
O265     O      0.784810000000     0.703710000000     0.784510000000    -0.371743   
O266     O      0.822190000000     0.786970000000     0.776770000000    -0.361801   
O267     O      0.700850000000     0.730220000000     0.775920000000    -0.366259   
O268     O      0.732980000000     0.698290000000     0.776740000000    -0.363261   
O269     O      0.790170000000     0.819020000000     0.777130000000    -0.365985   
O270     O      0.701520000000     0.785590000000     0.778340000000    -0.363283   
O271     O      0.816990000000     0.735620000000     0.784010000000    -0.370844   
O272     O      0.761230000000     0.758840000000     0.766350000000    -0.58672    


