data_structure

_audit_creation_method RASPA-1.0
_audit_creation_date 2023-5-19
_audit_author_name 'Poobodin Mano'

_cell_length_a    38.5173
_cell_length_b    38.7207
_cell_length_c    39.4052
_cell_angle_alpha 90
_cell_angle_beta  90
_cell_angle_gamma 90
_cell_volume      58769.6

_symmetry_cell_setting          triclinic
_symmetry_space_group_name_Hall 'P 1'
_symmetry_space_group_name_H-M  'P 1'
_symmetry_Int_Tables_number     1

_symmetry_equiv_pos_as_xyz 'x,y,z'

loop_
_atom_site_label
_atom_site_type_symbol
_atom_site_fract_x
_atom_site_fract_y
_atom_site_fract_z
_atom_site_charge
C1       C      0.453820000000     0.458050000000     0.045390000000     0.409457   
C2       C      0.088080000000     0.059390000000     0.064370000000     0.408544   
C3       C      0.091480000000     0.444050000000     0.028520000000     0.409627   
C4       C      0.452260000000     0.071740000000     0.052660000000     0.409765   
C5       C      0.475830000000     0.085810000000     0.466600000000     0.401487   
C6       C      0.066500000000     0.464510000000     0.446660000000     0.401121   
C7       C      0.464860000000     0.459610000000     0.454260000000     0.4035     
C8       C      0.082550000000     0.087000000000     0.479830000000     0.406102   
C9       C      0.324880000000     0.330040000000     0.214570000000     0.40955    
C10      C      0.211830000000     0.184050000000     0.230400000000     0.407708   
C11      C      0.326240000000     0.193850000000     0.221060000000     0.409084   
C12      C      0.206470000000     0.315610000000     0.206420000000     0.408136   
C13      C      0.197830000000     0.319070000000     0.295230000000     0.401973   
C14      C      0.338050000000     0.215740000000     0.308960000000     0.40142    
C15      C      0.323830000000     0.319350000000     0.304260000000     0.402314   
C16      C      0.211920000000     0.218210000000     0.319270000000     0.403073   
C17      C      0.188640000000     0.093750000000     0.120540000000    -0.0422877  
C18      C      0.142890000000     0.053440000000     0.096810000000    -0.0207636  
C19      C      0.193790000000     0.104040000000     0.181230000000     0.0158098  
C20      C      0.160940000000     0.070870000000     0.126200000000     0.0170482  
C21      C      0.210290000000     0.123270000000     0.210380000000    -0.0198458  
C22      C      0.149770000000     0.064760000000     0.159600000000    -0.0419895  
C23      C      0.165930000000     0.081370000000     0.186880000000    -0.0419595  
C24      C      0.204910000000     0.110230000000     0.147840000000    -0.0405243  
C25      C      0.139060000000     0.189420000000     0.445450000000    -0.042274   
C26      C      0.092180000000     0.147780000000     0.463810000000    -0.0203502  
C27      C      0.145440000000     0.206040000000     0.386360000000     0.0168771  
C28      C      0.111260000000     0.167660000000     0.436860000000     0.016251   
C29      C      0.163490000000     0.226850000000     0.359420000000    -0.0203196  
C30      C      0.101060000000     0.164770000000     0.402790000000    -0.0411001  
C31      C      0.118170000000     0.183670000000     0.377670000000    -0.0416468  
C32      C      0.156050000000     0.208470000000     0.420350000000    -0.0427928  
C33      C      0.153120000000     0.348600000000     0.074240000000    -0.0444832  
C34      C      0.108380000000     0.383720000000     0.042350000000    -0.0224155  
C35      C      0.147090000000     0.337830000000     0.134690000000     0.0164731  
C36      C      0.123490000000     0.369740000000     0.074800000000     0.0197395  
C37      C      0.157820000000     0.318090000000     0.165910000000    -0.0205336  
C38      C      0.106680000000     0.376020000000     0.105800000000    -0.0405921  
C39      C      0.118460000000     0.360260000000     0.135570000000    -0.041993   
C40      C      0.164850000000     0.332780000000     0.103990000000    -0.0407248  
C41      C      0.336230000000     0.131470000000     0.132250000000    -0.04146    
C42      C      0.329240000000     0.135580000000     0.195670000000    -0.0198622  
C43      C      0.374960000000     0.089570000000     0.106410000000     0.0157679  
C44      C      0.344930000000     0.119100000000     0.164650000000     0.0160199  
C45      C      0.392590000000     0.074840000000     0.075560000000    -0.0194093  
C46      C      0.368540000000     0.091660000000     0.167710000000    -0.0428839  
C47      C      0.383430000000     0.076980000000     0.138770000000    -0.0408329  
C48      C      0.351330000000     0.116970000000     0.103340000000    -0.042486   
C49      C      0.376670000000     0.414830000000     0.413640000000    -0.0399883  
C50      C      0.422440000000     0.460770000000     0.407070000000    -0.0220402  
C51      C      0.349820000000     0.387520000000     0.364760000000     0.0178158  
C52      C      0.397750000000     0.434760000000     0.392150000000     0.0176321  
C53      C      0.323370000000     0.363300000000     0.349810000000    -0.0220162  
C54      C      0.394830000000     0.430760000000     0.356850000000    -0.0436749  
C55      C      0.370960000000     0.407370000000     0.343270000000    -0.0401667  
C56      C      0.352960000000     0.391290000000     0.400060000000    -0.0437681  
C57      C      0.460920000000     0.158160000000     0.378860000000    -0.0419309  
C58      C      0.475910000000     0.143800000000     0.439690000000    -0.0198901  
C59      C      0.415140000000     0.199000000000     0.364730000000     0.0168474  
C60      C      0.454710000000     0.163160000000     0.413630000000     0.0159189  
C61      C      0.394540000000     0.218900000000     0.338620000000    -0.0206673  
C62      C      0.428170000000     0.185820000000     0.423760000000    -0.0412953  
C63      C      0.408550000000     0.203600000000     0.399490000000    -0.0420487  
C64      C      0.441200000000     0.175810000000     0.354610000000    -0.0418429  
C65      C      0.105930000000     0.381150000000     0.325760000000    -0.0400994  
C66      C      0.140980000000     0.326190000000     0.323300000000    -0.0193341  
C67      C      0.081010000000     0.401800000000     0.378670000000     0.0200367  
C68      C      0.121450000000     0.353370000000     0.342900000000     0.0152299  
C69      C      0.056950000000     0.425730000000     0.397480000000    -0.0230105  
C70      C      0.117740000000     0.350740000000     0.378260000000    -0.0414704  
C71      C      0.097710000000     0.374830000000     0.396020000000    -0.0411912  
C72      C      0.085920000000     0.405250000000     0.343520000000    -0.0444818  
C73      C      0.355650000000     0.409610000000     0.096760000000    -0.0422893  
C74      C      0.396500000000     0.454590000000     0.073040000000    -0.0199016  
C75      C      0.346800000000     0.403650000000     0.157530000000     0.0168295  
C76      C      0.379960000000     0.436000000000     0.102430000000     0.0158297  
C77      C      0.328090000000     0.387020000000     0.186800000000    -0.0205413  
C78      C      0.388230000000     0.445500000000     0.135840000000    -0.0413395  
C79      C      0.371850000000     0.429350000000     0.163220000000    -0.0429202  
C80      C      0.339200000000     0.393540000000     0.124140000000    -0.0412788  
C81      C      0.453820000000     0.458050000000     0.545390000000     0.409496   
C82      C      0.088080000000     0.059390000000     0.564370000000     0.408577   
C83      C      0.091480000000     0.444050000000     0.528520000000     0.409664   
C84      C      0.452260000000     0.071740000000     0.552660000000     0.409797   
C85      C      0.475830000000     0.085810000000     0.966590000000     0.401406   
C86      C      0.066500000000     0.464510000000     0.946660000000     0.401093   
C87      C      0.464860000000     0.459610000000     0.954260000000     0.403555   
C88      C      0.082550000000     0.087000000000     0.979820000000     0.40603    
C89      C      0.324880000000     0.330040000000     0.714570000000     0.409548   
C90      C      0.211830000000     0.184050000000     0.730400000000     0.407709   
C91      C      0.326240000000     0.193850000000     0.721060000000     0.409085   
C92      C      0.206470000000     0.315610000000     0.706430000000     0.408263   
C93      C      0.197830000000     0.319070000000     0.795230000000     0.401968   
C94      C      0.338050000000     0.215740000000     0.808960000000     0.401422   
C95      C      0.323830000000     0.319350000000     0.804260000000     0.402332   
C96      C      0.211920000000     0.218210000000     0.819270000000     0.403076   
C97      C      0.188640000000     0.093750000000     0.620540000000    -0.0422827  
C98      C      0.142890000000     0.053440000000     0.596810000000    -0.0207635  
C99      C      0.193790000000     0.104040000000     0.681230000000     0.0158177  
C100     C      0.160940000000     0.070870000000     0.626200000000     0.0170558  
C101     C      0.210290000000     0.123270000000     0.710380000000    -0.0198561  
C102     C      0.149770000000     0.064760000000     0.659600000000    -0.0419808  
C103     C      0.165930000000     0.081370000000     0.686880000000    -0.0419671  
C104     C      0.204910000000     0.110230000000     0.647840000000    -0.0405203  
C105     C      0.139060000000     0.189420000000     0.945450000000    -0.0422642  
C106     C      0.092180000000     0.147780000000     0.963810000000    -0.0203501  
C107     C      0.145440000000     0.206040000000     0.886360000000     0.0168804  
C108     C      0.111260000000     0.167660000000     0.936860000000     0.0162706  
C109     C      0.163490000000     0.226850000000     0.859420000000    -0.0203191  
C110     C      0.101060000000     0.164770000000     0.902790000000    -0.0411022  
C111     C      0.118170000000     0.183670000000     0.877670000000    -0.0416413  
C112     C      0.156050000000     0.208470000000     0.920350000000    -0.0427777  
C113     C      0.153120000000     0.348600000000     0.574230000000    -0.0445407  
C114     C      0.108380000000     0.383720000000     0.542350000000    -0.0224374  
C115     C      0.147090000000     0.337830000000     0.634690000000     0.0164663  
C116     C      0.123490000000     0.369740000000     0.574800000000     0.0197908  
C117     C      0.157820000000     0.318090000000     0.665910000000    -0.020537   
C118     C      0.106680000000     0.376020000000     0.605800000000    -0.0406117  
C119     C      0.118460000000     0.360260000000     0.635570000000    -0.0419772  
C120     C      0.164850000000     0.332780000000     0.603990000000    -0.0406909  
C121     C      0.336230000000     0.131470000000     0.632250000000    -0.0414626  
C122     C      0.329240000000     0.135580000000     0.695670000000    -0.0198704  
C123     C      0.374960000000     0.089570000000     0.606410000000     0.0157711  
C124     C      0.344930000000     0.119100000000     0.664650000000     0.0160418  
C125     C      0.392590000000     0.074840000000     0.575560000000    -0.0194101  
C126     C      0.368540000000     0.091660000000     0.667710000000    -0.0429312  
C127     C      0.383430000000     0.076980000000     0.638770000000    -0.0408137  
C128     C      0.351330000000     0.116970000000     0.603340000000    -0.0424736  
C129     C      0.376670000000     0.414830000000     0.913640000000    -0.0399959  
C130     C      0.422440000000     0.460770000000     0.907060000000    -0.0221044  
C131     C      0.349820000000     0.387520000000     0.864760000000     0.0178147  
C132     C      0.397750000000     0.434760000000     0.892150000000     0.0176763  
C133     C      0.323370000000     0.363300000000     0.849810000000    -0.0220129  
C134     C      0.394830000000     0.430760000000     0.856850000000    -0.0436905  
C135     C      0.370960000000     0.407370000000     0.843270000000    -0.0401566  
C136     C      0.352960000000     0.391290000000     0.900060000000    -0.0437471  
C137     C      0.460920000000     0.158160000000     0.878860000000    -0.0419331  
C138     C      0.475910000000     0.143800000000     0.939690000000    -0.0198848  
C139     C      0.415140000000     0.199000000000     0.864730000000     0.0168491  
C140     C      0.454710000000     0.163160000000     0.913630000000     0.0159333  
C141     C      0.394540000000     0.218900000000     0.838620000000    -0.0206665  
C142     C      0.428170000000     0.185820000000     0.923760000000    -0.0412878  
C143     C      0.408550000000     0.203600000000     0.899490000000    -0.0420368  
C144     C      0.441200000000     0.175810000000     0.854610000000    -0.0418394  
C145     C      0.105930000000     0.381150000000     0.825760000000    -0.0400896  
C146     C      0.140980000000     0.326190000000     0.823300000000    -0.0192971  
C147     C      0.081010000000     0.401800000000     0.878670000000     0.0200516  
C148     C      0.121450000000     0.353370000000     0.842900000000     0.0152169  
C149     C      0.056950000000     0.425730000000     0.897480000000    -0.0230145  
C150     C      0.117740000000     0.350740000000     0.878260000000    -0.0414518  
C151     C      0.097710000000     0.374830000000     0.896020000000    -0.0411907  
C152     C      0.085920000000     0.405250000000     0.843520000000    -0.0444884  
C153     C      0.355650000000     0.409610000000     0.596760000000    -0.0422858  
C154     C      0.396500000000     0.454590000000     0.573040000000    -0.019905   
C155     C      0.346800000000     0.403650000000     0.657530000000     0.0168297  
C156     C      0.379960000000     0.436000000000     0.602430000000     0.0158427  
C157     C      0.328090000000     0.387020000000     0.686800000000    -0.0205413  
C158     C      0.388230000000     0.445500000000     0.635840000000    -0.0413432  
C159     C      0.371850000000     0.429350000000     0.663220000000    -0.0429174  
C160     C      0.339200000000     0.393540000000     0.624140000000    -0.0412691  
C161     C      0.453820000000     0.958050000000     0.045390000000     0.409445   
C162     C      0.088080000000     0.559390000000     0.064370000000     0.408553   
C163     C      0.091480000000     0.944050000000     0.028520000000     0.409627   
C164     C      0.452260000000     0.571740000000     0.052660000000     0.409761   
C165     C      0.475830000000     0.585810000000     0.466600000000     0.401481   
C166     C      0.066500000000     0.964500000000     0.446660000000     0.401243   
C167     C      0.464860000000     0.959610000000     0.454260000000     0.403698   
C168     C      0.082550000000     0.587000000000     0.479830000000     0.406108   
C169     C      0.324880000000     0.830030000000     0.214570000000     0.409619   
C170     C      0.211830000000     0.684050000000     0.230400000000     0.407709   
C171     C      0.326240000000     0.693850000000     0.221060000000     0.409085   
C172     C      0.206470000000     0.815610000000     0.206420000000     0.408159   
C173     C      0.197830000000     0.819070000000     0.295230000000     0.401997   
C174     C      0.338050000000     0.715740000000     0.308960000000     0.401419   
C175     C      0.323830000000     0.819350000000     0.304260000000     0.402186   
C176     C      0.211920000000     0.718210000000     0.319270000000     0.403074   
C177     C      0.188640000000     0.593750000000     0.120540000000    -0.0422785  
C178     C      0.142890000000     0.553440000000     0.096810000000    -0.0207637  
C179     C      0.193790000000     0.604040000000     0.181230000000     0.015823   
C180     C      0.160940000000     0.570870000000     0.126200000000     0.0170457  
C181     C      0.210290000000     0.623270000000     0.210380000000    -0.0198511  
C182     C      0.149770000000     0.564760000000     0.159600000000    -0.0419504  
C183     C      0.165930000000     0.581370000000     0.186880000000    -0.041968   
C184     C      0.204910000000     0.610230000000     0.147840000000    -0.0405264  
C185     C      0.139060000000     0.689420000000     0.445450000000    -0.0422733  
C186     C      0.092180000000     0.647780000000     0.463810000000    -0.0203488  
C187     C      0.145440000000     0.706040000000     0.386360000000     0.0168774  
C188     C      0.111260000000     0.667660000000     0.436860000000     0.0162522  
C189     C      0.163490000000     0.726850000000     0.359420000000    -0.020319   
C190     C      0.101060000000     0.664770000000     0.402790000000    -0.0410987  
C191     C      0.118170000000     0.683670000000     0.377670000000    -0.0416446  
C192     C      0.156050000000     0.708470000000     0.420350000000    -0.0427921  
C193     C      0.153120000000     0.848600000000     0.074240000000    -0.0444736  
C194     C      0.108380000000     0.883720000000     0.042350000000    -0.0223914  
C195     C      0.147090000000     0.837830000000     0.134690000000     0.0164756  
C196     C      0.123490000000     0.869750000000     0.074800000000     0.0197333  
C197     C      0.157820000000     0.818090000000     0.165910000000    -0.0205324  
C198     C      0.106680000000     0.876020000000     0.105800000000    -0.0405862  
C199     C      0.118460000000     0.860260000000     0.135570000000    -0.0419906  
C200     C      0.164850000000     0.832780000000     0.103990000000    -0.0407269  
C201     C      0.336230000000     0.631470000000     0.132250000000    -0.0414562  
C202     C      0.329240000000     0.635580000000     0.195670000000    -0.0198637  
C203     C      0.374960000000     0.589570000000     0.106410000000     0.0157823  
C204     C      0.344930000000     0.619100000000     0.164650000000     0.0160235  
C205     C      0.392590000000     0.574840000000     0.075560000000    -0.0194182  
C206     C      0.368540000000     0.591660000000     0.167710000000    -0.0428753  
C207     C      0.383430000000     0.576980000000     0.138770000000    -0.0408295  
C208     C      0.351330000000     0.616970000000     0.103340000000    -0.042487   
C209     C      0.376670000000     0.914830000000     0.413640000000    -0.0399861  
C210     C      0.422440000000     0.960770000000     0.407070000000    -0.0220364  
C211     C      0.349820000000     0.887520000000     0.364760000000     0.01782    
C212     C      0.397750000000     0.934760000000     0.392150000000     0.0176401  
C213     C      0.323370000000     0.863300000000     0.349810000000    -0.0220221  
C214     C      0.394830000000     0.930760000000     0.356850000000    -0.0436714  
C215     C      0.370960000000     0.907370000000     0.343270000000    -0.0401625  
C216     C      0.352960000000     0.891290000000     0.400060000000    -0.0437653  
C217     C      0.460920000000     0.658160000000     0.378860000000    -0.0419045  
C218     C      0.475910000000     0.643790000000     0.439690000000    -0.01978    
C219     C      0.415140000000     0.699000000000     0.364730000000     0.0168573  
C220     C      0.454710000000     0.663160000000     0.413630000000     0.0158676  
C221     C      0.394540000000     0.718900000000     0.338620000000    -0.0206698  
C222     C      0.428170000000     0.685820000000     0.423760000000    -0.0412704  
C223     C      0.408550000000     0.703600000000     0.399490000000    -0.0420604  
C224     C      0.441200000000     0.675810000000     0.354610000000    -0.0418527  
C225     C      0.105930000000     0.881150000000     0.325760000000    -0.040098   
C226     C      0.140980000000     0.826190000000     0.323300000000    -0.0193415  
C227     C      0.081010000000     0.901800000000     0.378670000000     0.0200351  
C228     C      0.121450000000     0.853370000000     0.342900000000     0.0152317  
C229     C      0.056950000000     0.925730000000     0.397480000000    -0.0230018  
C230     C      0.117740000000     0.850740000000     0.378260000000    -0.0414705  
C231     C      0.097710000000     0.874830000000     0.396020000000    -0.0411898  
C232     C      0.085920000000     0.905250000000     0.343520000000    -0.0444767  
C233     C      0.355650000000     0.909610000000     0.096760000000    -0.0422413  
C234     C      0.396500000000     0.954580000000     0.073040000000    -0.0198416  
C235     C      0.346800000000     0.903650000000     0.157530000000     0.0168737  
C236     C      0.379960000000     0.936000000000     0.102430000000     0.0158023  
C237     C      0.328090000000     0.887020000000     0.186800000000    -0.0205582  
C238     C      0.388230000000     0.945500000000     0.135840000000    -0.0413093  
C239     C      0.371850000000     0.929350000000     0.163220000000    -0.0429357  
C240     C      0.339200000000     0.893530000000     0.124140000000    -0.0413629  
C241     C      0.453820000000     0.958050000000     0.545390000000     0.409485   
C242     C      0.088080000000     0.559390000000     0.564370000000     0.408585   
C243     C      0.091480000000     0.944050000000     0.528520000000     0.409665   
C244     C      0.452260000000     0.571740000000     0.552660000000     0.409793   
C245     C      0.475830000000     0.585810000000     0.966590000000     0.4014     
C246     C      0.066500000000     0.964500000000     0.946660000000     0.401216   
C247     C      0.464860000000     0.959610000000     0.954260000000     0.403753   
C248     C      0.082550000000     0.587000000000     0.979820000000     0.406036   
C249     C      0.324880000000     0.830030000000     0.714570000000     0.409618   
C250     C      0.211830000000     0.684050000000     0.730400000000     0.407709   
C251     C      0.326240000000     0.693850000000     0.721060000000     0.409086   
C252     C      0.206470000000     0.815610000000     0.706430000000     0.408286   
C253     C      0.197830000000     0.819070000000     0.795230000000     0.401992   
C254     C      0.338050000000     0.715740000000     0.808960000000     0.401422   
C255     C      0.323830000000     0.819350000000     0.804260000000     0.402204   
C256     C      0.211920000000     0.718210000000     0.819270000000     0.403077   
C257     C      0.188640000000     0.593750000000     0.620540000000    -0.0422735  
C258     C      0.142890000000     0.553440000000     0.596810000000    -0.0207636  
C259     C      0.193790000000     0.604040000000     0.681230000000     0.0158309  
C260     C      0.160940000000     0.570870000000     0.626200000000     0.0170533  
C261     C      0.210290000000     0.623270000000     0.710380000000    -0.0198614  
C262     C      0.149770000000     0.564760000000     0.659600000000    -0.0419417  
C263     C      0.165930000000     0.581370000000     0.686880000000    -0.0419756  
C264     C      0.204910000000     0.610230000000     0.647840000000    -0.0405224  
C265     C      0.139060000000     0.689420000000     0.945450000000    -0.0422635  
C266     C      0.092180000000     0.647780000000     0.963810000000    -0.0203488  
C267     C      0.145440000000     0.706040000000     0.886360000000     0.0168808  
C268     C      0.111260000000     0.667660000000     0.936860000000     0.0162719  
C269     C      0.163490000000     0.726850000000     0.859420000000    -0.0203186  
C270     C      0.101060000000     0.664770000000     0.902790000000    -0.0411008  
C271     C      0.118170000000     0.683670000000     0.877670000000    -0.0416392  
C272     C      0.156050000000     0.708470000000     0.920350000000    -0.042777   
C273     C      0.153120000000     0.848600000000     0.574230000000    -0.0445311  
C274     C      0.108380000000     0.883720000000     0.542350000000    -0.0224133  
C275     C      0.147090000000     0.837830000000     0.634690000000     0.0164689  
C276     C      0.123490000000     0.869750000000     0.574800000000     0.0197846  
C277     C      0.157820000000     0.818090000000     0.665910000000    -0.0205358  
C278     C      0.106680000000     0.876020000000     0.605800000000    -0.0406058  
C279     C      0.118460000000     0.860260000000     0.635570000000    -0.0419748  
C280     C      0.164850000000     0.832780000000     0.603990000000    -0.040693   
C281     C      0.336230000000     0.631470000000     0.632250000000    -0.0414587  
C282     C      0.329240000000     0.635580000000     0.695670000000    -0.0198718  
C283     C      0.374960000000     0.589570000000     0.606410000000     0.0157855  
C284     C      0.344930000000     0.619100000000     0.664650000000     0.0160455  
C285     C      0.392590000000     0.574840000000     0.575560000000    -0.0194189  
C286     C      0.368540000000     0.591660000000     0.667710000000    -0.0429226  
C287     C      0.383430000000     0.576980000000     0.638770000000    -0.0408103  
C288     C      0.351330000000     0.616970000000     0.603340000000    -0.0424746  
C289     C      0.376670000000     0.914830000000     0.913640000000    -0.0399937  
C290     C      0.422440000000     0.960770000000     0.907060000000    -0.0221006  
C291     C      0.349820000000     0.887520000000     0.864760000000     0.0178189  
C292     C      0.397750000000     0.934760000000     0.892150000000     0.0176842  
C293     C      0.323370000000     0.863300000000     0.849810000000    -0.0220188  
C294     C      0.394830000000     0.930760000000     0.856850000000    -0.043687   
C295     C      0.370960000000     0.907370000000     0.843270000000    -0.0401524  
C296     C      0.352960000000     0.891290000000     0.900060000000    -0.0437443  
C297     C      0.460920000000     0.658160000000     0.878860000000    -0.0419068  
C298     C      0.475910000000     0.643790000000     0.939690000000    -0.0197747  
C299     C      0.415140000000     0.699000000000     0.864730000000     0.0168589  
C300     C      0.454710000000     0.663160000000     0.913630000000     0.015882   
C301     C      0.394540000000     0.718900000000     0.838620000000    -0.020669   
C302     C      0.428170000000     0.685820000000     0.923760000000    -0.0412628  
C303     C      0.408550000000     0.703600000000     0.899490000000    -0.0420485  
C304     C      0.441200000000     0.675810000000     0.854610000000    -0.0418492  
C305     C      0.105930000000     0.881150000000     0.825760000000    -0.0400882  
C306     C      0.140980000000     0.826190000000     0.823300000000    -0.0193044  
C307     C      0.081010000000     0.901800000000     0.878670000000     0.0200499  
C308     C      0.121450000000     0.853370000000     0.842900000000     0.0152187  
C309     C      0.056950000000     0.925730000000     0.897480000000    -0.0230058  
C310     C      0.117740000000     0.850740000000     0.878260000000    -0.0414519  
C311     C      0.097710000000     0.874830000000     0.896020000000    -0.0411893  
C312     C      0.085920000000     0.905250000000     0.843520000000    -0.0444832  
C313     C      0.355650000000     0.909610000000     0.596760000000    -0.0422378  
C314     C      0.396500000000     0.954580000000     0.573040000000    -0.019845   
C315     C      0.346800000000     0.903650000000     0.657530000000     0.0168739  
C316     C      0.379960000000     0.936000000000     0.602430000000     0.0158153  
C317     C      0.328090000000     0.887020000000     0.686800000000    -0.0205582  
C318     C      0.388230000000     0.945500000000     0.635840000000    -0.041313   
C319     C      0.371850000000     0.929350000000     0.663220000000    -0.042933   
C320     C      0.339200000000     0.893530000000     0.624140000000    -0.0413532  
C321     C      0.953820000000     0.458050000000     0.045390000000     0.409351   
C322     C      0.588080000000     0.059390000000     0.064370000000     0.408539   
C323     C      0.591480000000     0.444050000000     0.028520000000     0.409634   
C324     C      0.952260000000     0.071740000000     0.052660000000     0.409742   
C325     C      0.975830000000     0.085810000000     0.466600000000     0.401489   
C326     C      0.566500000000     0.464510000000     0.446660000000     0.401126   
C327     C      0.964860000000     0.459610000000     0.454260000000     0.403634   
C328     C      0.582550000000     0.087000000000     0.479830000000     0.406096   
C329     C      0.824880000000     0.330040000000     0.214570000000     0.409674   
C330     C      0.711830000000     0.184050000000     0.230400000000     0.407713   
C331     C      0.826240000000     0.193850000000     0.221060000000     0.409248   
C332     C      0.706460000000     0.315610000000     0.206420000000     0.408108   
C333     C      0.697830000000     0.319070000000     0.295230000000     0.401976   
C334     C      0.838050000000     0.215740000000     0.308960000000     0.401425   
C335     C      0.823840000000     0.319350000000     0.304260000000     0.402488   
C336     C      0.711920000000     0.218210000000     0.319270000000     0.403212   
C337     C      0.688640000000     0.093750000000     0.120540000000    -0.0422876  
C338     C      0.642890000000     0.053440000000     0.096810000000    -0.0207628  
C339     C      0.693790000000     0.104040000000     0.181230000000     0.01581    
C340     C      0.660940000000     0.070870000000     0.126200000000     0.0170502  
C341     C      0.710290000000     0.123270000000     0.210380000000    -0.019845   
C342     C      0.649770000000     0.064760000000     0.159600000000    -0.0419877  
C343     C      0.665930000000     0.081370000000     0.186880000000    -0.0419561  
C344     C      0.704910000000     0.110230000000     0.147840000000    -0.0405234  
C345     C      0.639060000000     0.189420000000     0.445450000000    -0.042252   
C346     C      0.592180000000     0.147780000000     0.463810000000    -0.0203519  
C347     C      0.645440000000     0.206040000000     0.386360000000     0.0169107  
C348     C      0.611260000000     0.167660000000     0.436860000000     0.01625    
C349     C      0.663490000000     0.226850000000     0.359420000000    -0.0203592  
C350     C      0.601060000000     0.164770000000     0.402790000000    -0.0410863  
C351     C      0.618170000000     0.183670000000     0.377670000000    -0.0416553  
C352     C      0.656050000000     0.208470000000     0.420350000000    -0.0428366  
C353     C      0.653120000000     0.348600000000     0.074240000000    -0.0444789  
C354     C      0.608380000000     0.383720000000     0.042350000000    -0.0224184  
C355     C      0.647090000000     0.337830000000     0.134690000000     0.0164942  
C356     C      0.623490000000     0.369740000000     0.074800000000     0.019744   
C357     C      0.657820000000     0.318090000000     0.165910000000    -0.0205749  
C358     C      0.606680000000     0.376020000000     0.105800000000    -0.0405844  
C359     C      0.618460000000     0.360260000000     0.135570000000    -0.0419957  
C360     C      0.664850000000     0.332780000000     0.103990000000    -0.0407307  
C361     C      0.836230000000     0.131470000000     0.132250000000    -0.0414299  
C362     C      0.829240000000     0.135580000000     0.195670000000    -0.0198413  
C363     C      0.874960000000     0.089570000000     0.106410000000     0.015776   
C364     C      0.844920000000     0.119100000000     0.164650000000     0.0159919  
C365     C      0.892590000000     0.074840000000     0.075560000000    -0.0194118  
C366     C      0.868540000000     0.091660000000     0.167710000000    -0.0428499  
C367     C      0.883430000000     0.076980000000     0.138770000000    -0.0408449  
C368     C      0.851320000000     0.116970000000     0.103340000000    -0.0425116  
C369     C      0.876680000000     0.414830000000     0.413640000000    -0.0400046  
C370     C      0.922440000000     0.460770000000     0.407070000000    -0.0220432  
C371     C      0.849830000000     0.387520000000     0.364760000000     0.0178175  
C372     C      0.897750000000     0.434760000000     0.392150000000     0.0176687  
C373     C      0.823370000000     0.363300000000     0.349810000000    -0.0219898  
C374     C      0.894830000000     0.430760000000     0.356850000000    -0.0437062  
C375     C      0.870960000000     0.407370000000     0.343270000000    -0.0401543  
C376     C      0.852960000000     0.391290000000     0.400060000000    -0.0437673  
C377     C      0.960920000000     0.158160000000     0.378860000000    -0.0418852  
C378     C      0.975900000000     0.143800000000     0.439690000000    -0.0196462  
C379     C      0.915130000000     0.199000000000     0.364730000000     0.0168524  
C380     C      0.954710000000     0.163160000000     0.413630000000     0.0158626  
C381     C      0.894540000000     0.218900000000     0.338620000000    -0.0206442  
C382     C      0.928170000000     0.185820000000     0.423760000000    -0.0412581  
C383     C      0.908550000000     0.203600000000     0.399490000000    -0.0420553  
C384     C      0.941200000000     0.175810000000     0.354610000000    -0.041841   
C385     C      0.605930000000     0.381150000000     0.325760000000    -0.040091   
C386     C      0.640980000000     0.326190000000     0.323300000000    -0.0193355  
C387     C      0.581010000000     0.401800000000     0.378670000000     0.0200529  
C388     C      0.621450000000     0.353370000000     0.342900000000     0.0152337  
C389     C      0.556950000000     0.425730000000     0.397480000000    -0.0230206  
C390     C      0.617740000000     0.350740000000     0.378260000000    -0.0414638  
C391     C      0.597710000000     0.374830000000     0.396020000000    -0.041191   
C392     C      0.585920000000     0.405250000000     0.343520000000    -0.0444798  
C393     C      0.855650000000     0.409610000000     0.096760000000    -0.0422795  
C394     C      0.896500000000     0.454590000000     0.073040000000    -0.0198972  
C395     C      0.846800000000     0.403650000000     0.157530000000     0.0168363  
C396     C      0.879960000000     0.436000000000     0.102430000000     0.0158168  
C397     C      0.828090000000     0.387020000000     0.186800000000    -0.0205369  
C398     C      0.888220000000     0.445500000000     0.135840000000    -0.0412972  
C399     C      0.871850000000     0.429350000000     0.163220000000    -0.0429302  
C400     C      0.839200000000     0.393540000000     0.124140000000    -0.0412826  
C401     C      0.953820000000     0.458050000000     0.545390000000     0.409391   
C402     C      0.588080000000     0.059390000000     0.564370000000     0.408572   
C403     C      0.591480000000     0.444050000000     0.528520000000     0.409672   
C404     C      0.952260000000     0.071740000000     0.552660000000     0.409774   
C405     C      0.975830000000     0.085810000000     0.966590000000     0.401408   
C406     C      0.566500000000     0.464510000000     0.946660000000     0.401099   
C407     C      0.964860000000     0.459610000000     0.954260000000     0.403689   
C408     C      0.582550000000     0.087000000000     0.979820000000     0.406025   
C409     C      0.824880000000     0.330040000000     0.714570000000     0.409673   
C410     C      0.711830000000     0.184050000000     0.730400000000     0.407714   
C411     C      0.826240000000     0.193850000000     0.721060000000     0.409249   
C412     C      0.706460000000     0.315610000000     0.706430000000     0.408235   
C413     C      0.697830000000     0.319070000000     0.795230000000     0.401971   
C414     C      0.838050000000     0.215740000000     0.808960000000     0.401427   
C415     C      0.823840000000     0.319350000000     0.804260000000     0.402506   
C416     C      0.711920000000     0.218210000000     0.819270000000     0.403215   
C417     C      0.688640000000     0.093750000000     0.620540000000    -0.0422826  
C418     C      0.642890000000     0.053440000000     0.596810000000    -0.0207628  
C419     C      0.693790000000     0.104040000000     0.681230000000     0.0158178  
C420     C      0.660940000000     0.070870000000     0.626200000000     0.0170578  
C421     C      0.710290000000     0.123270000000     0.710380000000    -0.0198553  
C422     C      0.649770000000     0.064760000000     0.659600000000    -0.041979   
C423     C      0.665930000000     0.081370000000     0.686880000000    -0.0419637  
C424     C      0.704910000000     0.110230000000     0.647840000000    -0.0405195  
C425     C      0.639060000000     0.189420000000     0.945450000000    -0.0422422  
C426     C      0.592180000000     0.147780000000     0.963810000000    -0.0203519  
C427     C      0.645440000000     0.206040000000     0.886360000000     0.0169141  
C428     C      0.611260000000     0.167660000000     0.936860000000     0.0162696  
C429     C      0.663490000000     0.226850000000     0.859420000000    -0.0203587  
C430     C      0.601060000000     0.164770000000     0.902790000000    -0.0410884  
C431     C      0.618170000000     0.183670000000     0.877670000000    -0.0416498  
C432     C      0.656050000000     0.208470000000     0.920350000000    -0.0428215  
C433     C      0.653120000000     0.348600000000     0.574230000000    -0.0445365  
C434     C      0.608380000000     0.383720000000     0.542350000000    -0.0224402  
C435     C      0.647090000000     0.337830000000     0.634690000000     0.0164875  
C436     C      0.623490000000     0.369740000000     0.574800000000     0.0197953  
C437     C      0.657820000000     0.318090000000     0.665910000000    -0.0205783  
C438     C      0.606680000000     0.376020000000     0.605800000000    -0.040604   
C439     C      0.618460000000     0.360260000000     0.635570000000    -0.0419798  
C440     C      0.664850000000     0.332780000000     0.603990000000    -0.0406968  
C441     C      0.836230000000     0.131470000000     0.632250000000    -0.0414324  
C442     C      0.829240000000     0.135580000000     0.695670000000    -0.0198495  
C443     C      0.874960000000     0.089570000000     0.606410000000     0.0157792  
C444     C      0.844920000000     0.119100000000     0.664650000000     0.0160138  
C445     C      0.892590000000     0.074840000000     0.575560000000    -0.0194125  
C446     C      0.868540000000     0.091660000000     0.667710000000    -0.0428971  
C447     C      0.883430000000     0.076980000000     0.638770000000    -0.0408258  
C448     C      0.851320000000     0.116970000000     0.603340000000    -0.0424992  
C449     C      0.876680000000     0.414830000000     0.913640000000    -0.0400123  
C450     C      0.922440000000     0.460770000000     0.907060000000    -0.0221074  
C451     C      0.849830000000     0.387520000000     0.864760000000     0.0178164  
C452     C      0.897750000000     0.434760000000     0.892150000000     0.0177128  
C453     C      0.823370000000     0.363300000000     0.849810000000    -0.0219865  
C454     C      0.894830000000     0.430760000000     0.856850000000    -0.0437218  
C455     C      0.870960000000     0.407370000000     0.843270000000    -0.0401442  
C456     C      0.852960000000     0.391290000000     0.900060000000    -0.0437463  
C457     C      0.960920000000     0.158160000000     0.878860000000    -0.0418874  
C458     C      0.975900000000     0.143800000000     0.939690000000    -0.0196409  
C459     C      0.915130000000     0.199000000000     0.864730000000     0.016854   
C460     C      0.954710000000     0.163160000000     0.913630000000     0.015877   
C461     C      0.894540000000     0.218900000000     0.838620000000    -0.0206434  
C462     C      0.928170000000     0.185820000000     0.923760000000    -0.0412506  
C463     C      0.908550000000     0.203600000000     0.899490000000    -0.0420434  
C464     C      0.941200000000     0.175810000000     0.854610000000    -0.0418375  
C465     C      0.605930000000     0.381150000000     0.825760000000    -0.0400813  
C466     C      0.640980000000     0.326190000000     0.823300000000    -0.0192985  
C467     C      0.581010000000     0.401800000000     0.878670000000     0.0200678  
C468     C      0.621450000000     0.353370000000     0.842900000000     0.0152206  
C469     C      0.556950000000     0.425730000000     0.897480000000    -0.0230246  
C470     C      0.617740000000     0.350740000000     0.878260000000    -0.0414452  
C471     C      0.597710000000     0.374830000000     0.896020000000    -0.0411906  
C472     C      0.585920000000     0.405250000000     0.843520000000    -0.0444864  
C473     C      0.855650000000     0.409610000000     0.596760000000    -0.042276   
C474     C      0.896500000000     0.454590000000     0.573040000000    -0.0199007  
C475     C      0.846800000000     0.403650000000     0.657530000000     0.0168365  
C476     C      0.879960000000     0.436000000000     0.602430000000     0.0158298  
C477     C      0.828090000000     0.387020000000     0.686800000000    -0.0205369  
C478     C      0.888220000000     0.445500000000     0.635840000000    -0.0413009  
C479     C      0.871850000000     0.429350000000     0.663220000000    -0.0429275  
C480     C      0.839200000000     0.393540000000     0.624140000000    -0.0412729  
C481     C      0.953820000000     0.958050000000     0.045390000000     0.40934    
C482     C      0.588080000000     0.559390000000     0.064370000000     0.408548   
C483     C      0.591480000000     0.944050000000     0.028520000000     0.409635   
C484     C      0.952260000000     0.571740000000     0.052660000000     0.409738   
C485     C      0.975830000000     0.585810000000     0.466600000000     0.401483   
C486     C      0.566500000000     0.964500000000     0.446660000000     0.401248   
C487     C      0.964860000000     0.959610000000     0.454260000000     0.403831   
C488     C      0.582550000000     0.587000000000     0.479830000000     0.406103   
C489     C      0.824880000000     0.830030000000     0.214570000000     0.409744   
C490     C      0.711830000000     0.684050000000     0.230400000000     0.407714   
C491     C      0.826240000000     0.693850000000     0.221060000000     0.409248   
C492     C      0.706460000000     0.815610000000     0.206420000000     0.40813    
C493     C      0.697830000000     0.819070000000     0.295230000000     0.402      
C494     C      0.838050000000     0.715740000000     0.308960000000     0.401424   
C495     C      0.823840000000     0.819350000000     0.304260000000     0.40236    
C496     C      0.711920000000     0.718210000000     0.319270000000     0.403214   
C497     C      0.688640000000     0.593750000000     0.120540000000    -0.0422785  
C498     C      0.642890000000     0.553440000000     0.096810000000    -0.0207629  
C499     C      0.693790000000     0.604040000000     0.181230000000     0.0158232  
C500     C      0.660940000000     0.570870000000     0.126200000000     0.0170476  
C501     C      0.710290000000     0.623270000000     0.210380000000    -0.0198502  
C502     C      0.649770000000     0.564760000000     0.159600000000    -0.0419486  
C503     C      0.665930000000     0.581370000000     0.186880000000    -0.0419646  
C504     C      0.704910000000     0.610230000000     0.147840000000    -0.0405255  
C505     C      0.639060000000     0.689420000000     0.445450000000    -0.0422514  
C506     C      0.592180000000     0.647780000000     0.463810000000    -0.0203506  
C507     C      0.645440000000     0.706040000000     0.386360000000     0.0169111  
C508     C      0.611260000000     0.667660000000     0.436860000000     0.0162512  
C509     C      0.663490000000     0.726850000000     0.359420000000    -0.0203586  
C510     C      0.601060000000     0.664770000000     0.402790000000    -0.0410848  
C511     C      0.618170000000     0.683670000000     0.377670000000    -0.0416531  
C512     C      0.656050000000     0.708470000000     0.420350000000    -0.0428358  
C513     C      0.653120000000     0.848600000000     0.074240000000    -0.0444693  
C514     C      0.608380000000     0.883720000000     0.042350000000    -0.0223943  
C515     C      0.647090000000     0.837830000000     0.134690000000     0.0164967  
C516     C      0.623490000000     0.869750000000     0.074800000000     0.0197378  
C517     C      0.657820000000     0.818090000000     0.165910000000    -0.0205737  
C518     C      0.606680000000     0.876020000000     0.105800000000    -0.0405785  
C519     C      0.618460000000     0.860260000000     0.135570000000    -0.0419932  
C520     C      0.664850000000     0.832780000000     0.103990000000    -0.0407328  
C521     C      0.836230000000     0.631470000000     0.132250000000    -0.0414261  
C522     C      0.829240000000     0.635580000000     0.195670000000    -0.0198428  
C523     C      0.874960000000     0.589570000000     0.106410000000     0.0157904  
C524     C      0.844920000000     0.619100000000     0.164650000000     0.0159956  
C525     C      0.892590000000     0.574840000000     0.075560000000    -0.0194207  
C526     C      0.868540000000     0.591660000000     0.167710000000    -0.0428412  
C527     C      0.883430000000     0.576980000000     0.138770000000    -0.0408416  
C528     C      0.851320000000     0.616970000000     0.103340000000    -0.0425126  
C529     C      0.876680000000     0.914830000000     0.413640000000    -0.0400024  
C530     C      0.922440000000     0.960770000000     0.407070000000    -0.0220394  
C531     C      0.849830000000     0.887520000000     0.364760000000     0.0178216  
C532     C      0.897750000000     0.934760000000     0.392150000000     0.0176767  
C533     C      0.823370000000     0.863300000000     0.349810000000    -0.0219957  
C534     C      0.894830000000     0.930760000000     0.356850000000    -0.0437027  
C535     C      0.870960000000     0.907370000000     0.343270000000    -0.0401501  
C536     C      0.852960000000     0.891290000000     0.400060000000    -0.0437645  
C537     C      0.960920000000     0.658160000000     0.378860000000    -0.0418588  
C538     C      0.975900000000     0.643790000000     0.439690000000    -0.0195361  
C539     C      0.915130000000     0.699000000000     0.364730000000     0.0168622  
C540     C      0.954710000000     0.663160000000     0.413630000000     0.0158113  
C541     C      0.894540000000     0.718900000000     0.338620000000    -0.0206467  
C542     C      0.928170000000     0.685820000000     0.423760000000    -0.0412332  
C543     C      0.908550000000     0.703600000000     0.399490000000    -0.0420669  
C544     C      0.941200000000     0.675810000000     0.354610000000    -0.0418508  
C545     C      0.605930000000     0.881150000000     0.325760000000    -0.0400897  
C546     C      0.640980000000     0.826190000000     0.323300000000    -0.0193429  
C547     C      0.581010000000     0.901800000000     0.378670000000     0.0200512  
C548     C      0.621450000000     0.853370000000     0.342900000000     0.0152354  
C549     C      0.556950000000     0.925730000000     0.397480000000    -0.0230119  
C550     C      0.617740000000     0.850740000000     0.378260000000    -0.0414639  
C551     C      0.597710000000     0.874830000000     0.396020000000    -0.0411896  
C552     C      0.585920000000     0.905250000000     0.343520000000    -0.0444746  
C553     C      0.855650000000     0.909610000000     0.096760000000    -0.0422316  
C554     C      0.896500000000     0.954580000000     0.073040000000    -0.0198372  
C555     C      0.846800000000     0.903650000000     0.157530000000     0.0168804  
C556     C      0.879960000000     0.936000000000     0.102430000000     0.0157894  
C557     C      0.828090000000     0.887020000000     0.186800000000    -0.0205538  
C558     C      0.888220000000     0.945500000000     0.135840000000    -0.041267   
C559     C      0.871850000000     0.929350000000     0.163220000000    -0.0429458  
C560     C      0.839200000000     0.893530000000     0.124140000000    -0.0413667  
C561     C      0.953820000000     0.958050000000     0.545390000000     0.40938    
C562     C      0.588080000000     0.559390000000     0.564370000000     0.40858    
C563     C      0.591480000000     0.944050000000     0.528520000000     0.409672   
C564     C      0.952260000000     0.571740000000     0.552660000000     0.40977    
C565     C      0.975830000000     0.585810000000     0.966590000000     0.401402   
C566     C      0.566500000000     0.964500000000     0.946660000000     0.401221   
C567     C      0.964860000000     0.959610000000     0.954260000000     0.403887   
C568     C      0.582550000000     0.587000000000     0.979820000000     0.406031   
C569     C      0.824880000000     0.830030000000     0.714570000000     0.409743   
C570     C      0.711830000000     0.684050000000     0.730400000000     0.407714   
C571     C      0.826240000000     0.693850000000     0.721060000000     0.409249   
C572     C      0.706460000000     0.815610000000     0.706430000000     0.408258   
C573     C      0.697830000000     0.819070000000     0.795230000000     0.401995   
C574     C      0.838050000000     0.715740000000     0.808960000000     0.401426   
C575     C      0.823840000000     0.819350000000     0.804260000000     0.402378   
C576     C      0.711920000000     0.718210000000     0.819270000000     0.403217   
C577     C      0.688640000000     0.593750000000     0.620540000000    -0.0422735  
C578     C      0.642890000000     0.553440000000     0.596810000000    -0.0207628  
C579     C      0.693790000000     0.604040000000     0.681230000000     0.0158311  
C580     C      0.660940000000     0.570870000000     0.626200000000     0.0170552  
C581     C      0.710290000000     0.623270000000     0.710380000000    -0.0198605  
C582     C      0.649770000000     0.564760000000     0.659600000000    -0.0419399  
C583     C      0.665930000000     0.581370000000     0.686880000000    -0.0419722  
C584     C      0.704910000000     0.610230000000     0.647840000000    -0.0405216  
C585     C      0.639060000000     0.689420000000     0.945450000000    -0.0422416  
C586     C      0.592180000000     0.647780000000     0.963810000000    -0.0203505  
C587     C      0.645440000000     0.706040000000     0.886360000000     0.0169144  
C588     C      0.611260000000     0.667660000000     0.936860000000     0.0162709  
C589     C      0.663490000000     0.726850000000     0.859420000000    -0.0203582  
C590     C      0.601060000000     0.664770000000     0.902790000000    -0.0410869  
C591     C      0.618170000000     0.683670000000     0.877670000000    -0.0416477  
C592     C      0.656050000000     0.708470000000     0.920350000000    -0.0428207  
C593     C      0.653120000000     0.848600000000     0.574230000000    -0.0445268  
C594     C      0.608380000000     0.883720000000     0.542350000000    -0.0224161  
C595     C      0.647090000000     0.837830000000     0.634690000000     0.01649    
C596     C      0.623490000000     0.869750000000     0.574800000000     0.019789   
C597     C      0.657820000000     0.818090000000     0.665910000000    -0.0205771  
C598     C      0.606680000000     0.876020000000     0.605800000000    -0.040598   
C599     C      0.618460000000     0.860260000000     0.635570000000    -0.0419774  
C600     C      0.664850000000     0.832780000000     0.603990000000    -0.0406989  
C601     C      0.836230000000     0.631470000000     0.632250000000    -0.0414286  
C602     C      0.829240000000     0.635580000000     0.695670000000    -0.019851   
C603     C      0.874960000000     0.589570000000     0.606410000000     0.0157935  
C604     C      0.844920000000     0.619100000000     0.664650000000     0.0160175  
C605     C      0.892590000000     0.574840000000     0.575560000000    -0.0194214  
C606     C      0.868540000000     0.591660000000     0.667710000000    -0.0428885  
C607     C      0.883430000000     0.576980000000     0.638770000000    -0.0408224  
C608     C      0.851320000000     0.616970000000     0.603340000000    -0.0425003  
C609     C      0.876680000000     0.914830000000     0.913640000000    -0.0400101  
C610     C      0.922440000000     0.960770000000     0.907060000000    -0.0221036  
C611     C      0.849830000000     0.887520000000     0.864760000000     0.0178205  
C612     C      0.897750000000     0.934760000000     0.892150000000     0.0177208  
C613     C      0.823370000000     0.863300000000     0.849810000000    -0.0219924  
C614     C      0.894830000000     0.930760000000     0.856850000000    -0.0437183  
C615     C      0.870960000000     0.907370000000     0.843270000000    -0.04014    
C616     C      0.852960000000     0.891290000000     0.900060000000    -0.0437435  
C617     C      0.960920000000     0.658160000000     0.878860000000    -0.0418611  
C618     C      0.975900000000     0.643790000000     0.939690000000    -0.0195308  
C619     C      0.915130000000     0.699000000000     0.864730000000     0.0168639  
C620     C      0.954710000000     0.663160000000     0.913630000000     0.0158257  
C621     C      0.894540000000     0.718900000000     0.838620000000    -0.0206459  
C622     C      0.928170000000     0.685820000000     0.923760000000    -0.0412257  
C623     C      0.908550000000     0.703600000000     0.899490000000    -0.042055   
C624     C      0.941200000000     0.675810000000     0.854610000000    -0.0418472  
C625     C      0.605930000000     0.881150000000     0.825760000000    -0.0400799  
C626     C      0.640980000000     0.826190000000     0.823300000000    -0.0193058  
C627     C      0.581010000000     0.901800000000     0.878670000000     0.0200661  
C628     C      0.621450000000     0.853370000000     0.842900000000     0.0152224  
C629     C      0.556950000000     0.925730000000     0.897480000000    -0.0230159  
C630     C      0.617740000000     0.850740000000     0.878260000000    -0.0414452  
C631     C      0.597710000000     0.874830000000     0.896020000000    -0.0411891  
C632     C      0.585920000000     0.905250000000     0.843520000000    -0.0444812  
C633     C      0.855650000000     0.909610000000     0.596760000000    -0.042228   
C634     C      0.896500000000     0.954580000000     0.573040000000    -0.0198407  
C635     C      0.846800000000     0.903650000000     0.657530000000     0.0168807  
C636     C      0.879960000000     0.936000000000     0.602430000000     0.0158024  
C637     C      0.828090000000     0.887020000000     0.686800000000    -0.0205538  
C638     C      0.888220000000     0.945500000000     0.635840000000    -0.0412707  
C639     C      0.871850000000     0.929350000000     0.663220000000    -0.042943   
C640     C      0.839200000000     0.893530000000     0.624140000000    -0.0413569  
Co1      Co     0.473260000000     0.018340000000     0.002210000000     0.84154    
Co2      Co     0.071790000000     0.514640000000     0.504250000000     0.843117   
Co3      Co     0.519830000000     0.463080000000     0.006970000000     0.854946   
Co4      Co     0.523350000000     0.066240000000     0.523610000000     0.857122   
Co5      Co     0.264050000000     0.310250000000     0.257180000000     0.840786   
Co6      Co     0.270990000000     0.212820000000     0.270740000000     0.841349   
Co7      Co     0.320060000000     0.263600000000     0.252360000000     0.85462    
Co8      Co     0.215320000000     0.256940000000     0.254020000000     0.854723   
Co9      Co     0.473260000000     0.018340000000     0.502210000000     0.841871   
Co10     Co     0.071790000000     0.514640000000     0.004250000000     0.842793   
Co11     Co     0.519830000000     0.463080000000     0.506970000000     0.855291   
Co12     Co     0.523350000000     0.066240000000     0.023610000000     0.856804   
Co13     Co     0.264050000000     0.310250000000     0.757180000000     0.840665   
Co14     Co     0.270990000000     0.212820000000     0.770740000000     0.841346   
Co15     Co     0.320060000000     0.263600000000     0.752360000000     0.854625   
Co16     Co     0.215320000000     0.256940000000     0.754020000000     0.854734   
Co17     Co     0.473260000000     0.518330000000     0.002210000000     0.841739   
Co18     Co     0.071790000000     0.014640000000     0.504250000000     0.842928   
Co19     Co     0.519830000000     0.963080000000     0.006970000000     0.855199   
Co20     Co     0.523350000000     0.566240000000     0.523610000000     0.857141   
Co21     Co     0.264050000000     0.810260000000     0.257180000000     0.840891   
Co22     Co     0.270990000000     0.712820000000     0.270740000000     0.841338   
Co23     Co     0.320060000000     0.763600000000     0.252360000000     0.854677   
Co24     Co     0.215320000000     0.756940000000     0.254020000000     0.854749   
Co25     Co     0.473260000000     0.518330000000     0.502210000000     0.84207    
Co26     Co     0.071790000000     0.014640000000     0.004250000000     0.842604   
Co27     Co     0.519830000000     0.963080000000     0.506970000000     0.855544   
Co28     Co     0.523350000000     0.566240000000     0.023610000000     0.856823   
Co29     Co     0.264050000000     0.810260000000     0.757180000000     0.84077    
Co30     Co     0.270990000000     0.712820000000     0.770740000000     0.841335   
Co31     Co     0.320060000000     0.763600000000     0.752360000000     0.854682   
Co32     Co     0.215320000000     0.756940000000     0.754020000000     0.854759   
Co33     Co     0.973260000000     0.018340000000     0.002210000000     0.84169    
Co34     Co     0.571790000000     0.514640000000     0.504250000000     0.843137   
Co35     Co     0.019830000000     0.463080000000     0.006970000000     0.854677   
Co36     Co     0.023360000000     0.066240000000     0.523610000000     0.8569     
Co37     Co     0.764050000000     0.310250000000     0.257180000000     0.84075    
Co38     Co     0.770990000000     0.212820000000     0.270740000000     0.841332   
Co39     Co     0.820060000000     0.263600000000     0.252360000000     0.854715   
Co40     Co     0.715320000000     0.256940000000     0.254020000000     0.854798   
Co41     Co     0.973260000000     0.018340000000     0.502210000000     0.842021   
Co42     Co     0.571790000000     0.514640000000     0.004250000000     0.842812   
Co43     Co     0.019830000000     0.463080000000     0.506970000000     0.855021   
Co44     Co     0.023360000000     0.066240000000     0.023610000000     0.856582   
Co45     Co     0.764050000000     0.310250000000     0.757180000000     0.840629   
Co46     Co     0.770990000000     0.212820000000     0.770740000000     0.84133    
Co47     Co     0.820060000000     0.263600000000     0.752360000000     0.85472    
Co48     Co     0.715320000000     0.256940000000     0.754020000000     0.854809   
Co49     Co     0.973260000000     0.518330000000     0.002210000000     0.841889   
Co50     Co     0.571790000000     0.014640000000     0.504250000000     0.842947   
Co51     Co     0.019830000000     0.963080000000     0.006970000000     0.85493    
Co52     Co     0.023360000000     0.566240000000     0.523610000000     0.85692    
Co53     Co     0.764050000000     0.810260000000     0.257180000000     0.840855   
Co54     Co     0.770990000000     0.712820000000     0.270740000000     0.841321   
Co55     Co     0.820060000000     0.763600000000     0.252360000000     0.854772   
Co56     Co     0.715320000000     0.756940000000     0.254020000000     0.854824   
Co57     Co     0.973260000000     0.518330000000     0.502210000000     0.84222    
Co58     Co     0.571790000000     0.014640000000     0.004250000000     0.842623   
Co59     Co     0.019830000000     0.963080000000     0.506970000000     0.855274   
Co60     Co     0.023360000000     0.566240000000     0.023610000000     0.856601   
Co61     Co     0.764050000000     0.810260000000     0.757180000000     0.840734   
Co62     Co     0.770990000000     0.712820000000     0.770740000000     0.841318   
Co63     Co     0.820060000000     0.763600000000     0.752360000000     0.854777   
Co64     Co     0.715320000000     0.756940000000     0.754020000000     0.854834   
H1       H      0.172270000000     0.163700000000     0.201070000000     0.10575    
H2       H      0.158890000000     0.054770000000     0.073330000000     0.0494703  
H3       H      0.138890000000     0.025640000000     0.102750000000     0.0465472  
H4       H      0.226030000000     0.128020000000     0.142930000000     0.0413983  
H5       H      0.197530000000     0.099050000000     0.094980000000     0.0415147  
H6       H      0.205920000000     0.109370000000     0.234700000000     0.0445253  
H7       H      0.128290000000     0.047400000000     0.164460000000     0.0420718  
H8       H      0.156580000000     0.076650000000     0.212390000000     0.0410783  
H9       H      0.238890000000     0.124420000000     0.206760000000     0.0484072  
H10      H      0.099990000000     0.088790000000     0.106620000000     0.10581    
H11      H      0.208910000000     0.194030000000     0.366080000000     0.105468   
H12      H      0.098510000000     0.157620000000     0.489610000000     0.046284   
H13      H      0.063740000000     0.151110000000     0.460110000000     0.0495749  
H14      H      0.177340000000     0.225280000000     0.427420000000     0.0397454  
H15      H      0.147460000000     0.191830000000     0.471580000000     0.0403023  
H16      H      0.146050000000     0.230720000000     0.337210000000     0.0518826  
H17      H      0.079780000000     0.147950000000     0.395720000000     0.0415292  
H18      H      0.109910000000     0.181130000000     0.351520000000     0.042852   
H19      H      0.169390000000     0.253040000000     0.369420000000     0.0388956  
H20      H      0.122060000000     0.102770000000     0.447670000000     0.106445   
H21      H      0.198300000000     0.356750000000     0.173590000000     0.104773   
H22      H      0.120080000000     0.370400000000     0.020130000000     0.0388291  
H23      H      0.080020000000     0.378380000000     0.042040000000     0.0542686  
H24      H      0.187180000000     0.315810000000     0.102910000000     0.0419786  
H25      H      0.166610000000     0.343550000000     0.050630000000     0.0393044  
H26      H      0.136670000000     0.318100000000     0.185150000000     0.0458059  
H27      H      0.083880000000     0.392380000000     0.106750000000     0.046648   
H28      H      0.104600000000     0.364770000000     0.159070000000     0.0411452  
H29      H      0.162090000000     0.290510000000     0.159120000000     0.0498217  
H30      H      0.141230000000     0.429000000000     0.042180000000     0.104751   
H31      H      0.436740000000     0.107430000000     0.088690000000     0.106299   
H32      H      0.300500000000     0.135800000000     0.192920000000     0.047499   
H33      H      0.335430000000     0.120720000000     0.219060000000     0.045563   
H34      H      0.344700000000     0.127270000000     0.078610000000     0.0406189  
H35      H      0.318070000000     0.152640000000     0.129440000000     0.0423387  
H36      H      0.391700000000     0.046150000000     0.076630000000     0.0476134  
H37      H      0.375640000000     0.081760000000     0.192470000000     0.0402521  
H38      H      0.401860000000     0.056040000000     0.141600000000     0.0413901  
H39      H      0.378730000000     0.082380000000     0.051940000000     0.0450528  
H40      H      0.363070000000     0.179570000000     0.185480000000     0.105932   
H41      H      0.365470000000     0.328390000000     0.336360000000     0.104072   
H42      H      0.435840000000     0.475760000000     0.386870000000     0.0413948  
H43      H      0.407260000000     0.479390000000     0.422630000000     0.0543448  
H44      H      0.336840000000     0.376330000000     0.417110000000     0.0398084  
H45      H      0.378480000000     0.417690000000     0.440940000000     0.0453683  
H46      H      0.307540000000     0.350960000000     0.370050000000     0.041199   
H47      H      0.410760000000     0.445940000000     0.339800000000     0.0395326  
H48      H      0.368780000000     0.404890000000     0.315960000000     0.0454154  
H49      H      0.305090000000     0.378460000000     0.333810000000     0.0545666  
H50      H      0.456110000000     0.418310000000     0.421970000000     0.103863   
H51      H      0.351080000000     0.184600000000     0.349870000000     0.105847   
H52      H      0.503640000000     0.143380000000     0.431870000000     0.0423062  
H53      H      0.474560000000     0.156620000000     0.464930000000     0.0489922  
H54      H      0.446520000000     0.171610000000     0.327930000000     0.0419929  
H55      H      0.481030000000     0.140540000000     0.370530000000     0.0405626  
H56      H      0.391870000000     0.246250000000     0.346850000000     0.0463812  
H57      H      0.422680000000     0.189790000000     0.450430000000     0.0419037  
H58      H      0.388360000000     0.221140000000     0.407810000000     0.0416346  
H59      H      0.408630000000     0.219730000000     0.313980000000     0.05083    
H60      H      0.445030000000     0.098930000000     0.425650000000     0.10552    
H61      H      0.096540000000     0.465140000000     0.402930000000     0.104959   
H62      H      0.142320000000     0.301640000000     0.337850000000     0.0432517  
H63      H      0.127160000000     0.320480000000     0.299140000000     0.0487274  
H64      H      0.073570000000     0.426070000000     0.329690000000     0.0399292  
H65      H      0.108780000000     0.383780000000     0.298530000000     0.0422382  
H66      H      0.039040000000     0.438610000000     0.379330000000     0.0380763  
H67      H      0.129790000000     0.329680000000     0.392000000000     0.0391364  
H68      H      0.094490000000     0.371950000000     0.423190000000     0.0462588  
H69      H      0.040300000000     0.410250000000     0.414820000000     0.0561841  
H70      H      0.185570000000     0.360810000000     0.325860000000     0.105568   
H71      H      0.365390000000     0.344780000000     0.183080000000     0.106013   
H72      H      0.380720000000     0.451570000000     0.049580000000     0.0446542  
H73      H      0.397890000000     0.482690000000     0.078730000000     0.0478175  
H74      H      0.320220000000     0.373480000000     0.119310000000     0.0429246  
H75      H      0.349110000000     0.401740000000     0.071170000000     0.0405105  
H76      H      0.330430000000     0.403030000000     0.210130000000     0.0449972  
H77      H      0.407080000000     0.465670000000     0.140670000000     0.0409303  
H78      H      0.378370000000     0.437250000000     0.188810000000     0.0401244  
H79      H      0.299840000000     0.385610000000     0.181030000000     0.0514813  
H80      H      0.439630000000     0.418360000000     0.077880000000     0.105018   
H81      H      0.172270000000     0.163700000000     0.701070000000     0.105755   
H82      H      0.158890000000     0.054770000000     0.573330000000     0.0495021  
H83      H      0.138890000000     0.025640000000     0.602750000000     0.0465502  
H84      H      0.226030000000     0.128020000000     0.642930000000     0.0414106  
H85      H      0.197530000000     0.099050000000     0.594980000000     0.0415443  
H86      H      0.205920000000     0.109370000000     0.734700000000     0.0445249  
H87      H      0.128290000000     0.047400000000     0.664470000000     0.0420639  
H88      H      0.156580000000     0.076650000000     0.712390000000     0.0410779  
H89      H      0.238890000000     0.124420000000     0.706770000000     0.048415   
H90      H      0.099990000000     0.088790000000     0.606620000000     0.105823   
H91      H      0.208910000000     0.194030000000     0.866080000000     0.10548    
H92      H      0.098510000000     0.157620000000     0.989610000000     0.0463466  
H93      H      0.063740000000     0.151110000000     0.960110000000     0.0495883  
H94      H      0.177340000000     0.225280000000     0.927420000000     0.0397742  
H95      H      0.147460000000     0.191830000000     0.971580000000     0.0403558  
H96      H      0.146050000000     0.230720000000     0.837210000000     0.051883   
H97      H      0.079780000000     0.147950000000     0.895720000000     0.0415294  
H98      H      0.109910000000     0.181130000000     0.851520000000     0.0428509  
H99      H      0.169390000000     0.253040000000     0.869420000000     0.0389058  
H100     H      0.122060000000     0.102770000000     0.947670000000     0.106468   
H101     H      0.198300000000     0.356750000000     0.673590000000     0.104775   
H102     H      0.120080000000     0.370400000000     0.520130000000     0.0388984  
H103     H      0.080020000000     0.378380000000     0.542040000000     0.054308   
H104     H      0.187180000000     0.315810000000     0.602910000000     0.0419955  
H105     H      0.166610000000     0.343550000000     0.550630000000     0.0393773  
H106     H      0.136670000000     0.318100000000     0.685150000000     0.0458044  
H107     H      0.083880000000     0.392380000000     0.606750000000     0.046654   
H108     H      0.104600000000     0.364770000000     0.659070000000     0.041141   
H109     H      0.162090000000     0.290510000000     0.659120000000     0.0498365  
H110     H      0.141230000000     0.429000000000     0.542190000000     0.104773   
H111     H      0.436740000000     0.107430000000     0.588690000000     0.106317   
H112     H      0.300500000000     0.135800000000     0.692920000000     0.0475024  
H113     H      0.335430000000     0.120720000000     0.719060000000     0.0455642  
H114     H      0.344700000000     0.127270000000     0.578610000000     0.0406519  
H115     H      0.318070000000     0.152640000000     0.629440000000     0.0423554  
H116     H      0.391700000000     0.046150000000     0.576630000000     0.0476241  
H117     H      0.375640000000     0.081760000000     0.692460000000     0.0402761  
H118     H      0.401860000000     0.056040000000     0.641600000000     0.0413822  
H119     H      0.378730000000     0.082380000000     0.551940000000     0.0450967  
H120     H      0.363070000000     0.179570000000     0.685480000000     0.105938   
H121     H      0.365470000000     0.328390000000     0.836360000000     0.104076   
H122     H      0.435840000000     0.475760000000     0.886870000000     0.0414186  
H123     H      0.407260000000     0.479390000000     0.922630000000     0.0543859  
H124     H      0.336840000000     0.376330000000     0.917110000000     0.0398392  
H125     H      0.378480000000     0.417690000000     0.940940000000     0.0454204  
H126     H      0.307540000000     0.350960000000     0.870050000000     0.0412185  
H127     H      0.410760000000     0.445940000000     0.839800000000     0.0395367  
H128     H      0.368780000000     0.404890000000     0.815960000000     0.0454112  
H129     H      0.305090000000     0.378460000000     0.833810000000     0.0545733  
H130     H      0.456110000000     0.418310000000     0.921970000000     0.103884   
H131     H      0.351080000000     0.184600000000     0.849870000000     0.105857   
H132     H      0.503640000000     0.143380000000     0.931870000000     0.0423065  
H133     H      0.474560000000     0.156620000000     0.964930000000     0.0490346  
H134     H      0.446520000000     0.171610000000     0.827930000000     0.0419915  
H135     H      0.481030000000     0.140540000000     0.870530000000     0.040562   
H136     H      0.391870000000     0.246250000000     0.846850000000     0.0463873  
H137     H      0.422680000000     0.189790000000     0.950430000000     0.0419491  
H138     H      0.388360000000     0.221140000000     0.907810000000     0.0416572  
H139     H      0.408630000000     0.219730000000     0.813980000000     0.0508297  
H140     H      0.445030000000     0.098930000000     0.925650000000     0.105537   
H141     H      0.096540000000     0.465140000000     0.902930000000     0.10497    
H142     H      0.142320000000     0.301640000000     0.837850000000     0.0432475  
H143     H      0.127160000000     0.320480000000     0.799130000000     0.0487119  
H144     H      0.073570000000     0.426070000000     0.829690000000     0.0399296  
H145     H      0.108780000000     0.383780000000     0.798530000000     0.0422325  
H146     H      0.039040000000     0.438610000000     0.879330000000     0.0380782  
H147     H      0.129790000000     0.329680000000     0.892000000000     0.0391547  
H148     H      0.094490000000     0.371950000000     0.923190000000     0.0463029  
H149     H      0.040300000000     0.410250000000     0.914820000000     0.0562039  
H150     H      0.185570000000     0.360810000000     0.825860000000     0.105574   
H151     H      0.365390000000     0.344780000000     0.683080000000     0.106018   
H152     H      0.380720000000     0.451570000000     0.549580000000     0.0446991  
H153     H      0.397890000000     0.482690000000     0.578730000000     0.047825   
H154     H      0.320220000000     0.373480000000     0.619310000000     0.042941   
H155     H      0.349110000000     0.401740000000     0.571170000000     0.0405477  
H156     H      0.330430000000     0.403030000000     0.710130000000     0.044995   
H157     H      0.407080000000     0.465670000000     0.640670000000     0.0409286  
H158     H      0.378370000000     0.437250000000     0.688810000000     0.0401219  
H159     H      0.299840000000     0.385610000000     0.681030000000     0.0514871  
H160     H      0.439630000000     0.418360000000     0.577880000000     0.105036   
H161     H      0.172270000000     0.663700000000     0.201070000000     0.105751   
H162     H      0.158890000000     0.554770000000     0.073330000000     0.0494856  
H163     H      0.138890000000     0.525640000000     0.102750000000     0.0465756  
H164     H      0.226030000000     0.628020000000     0.142930000000     0.0414017  
H165     H      0.197530000000     0.599050000000     0.094980000000     0.0415197  
H166     H      0.205920000000     0.609370000000     0.234700000000     0.0445373  
H167     H      0.128290000000     0.547390000000     0.164460000000     0.0420737  
H168     H      0.156580000000     0.576650000000     0.212390000000     0.0410967  
H169     H      0.238890000000     0.624420000000     0.206760000000     0.0484138  
H170     H      0.099990000000     0.588790000000     0.106620000000     0.105814   
H171     H      0.208910000000     0.694030000000     0.366080000000     0.105472   
H172     H      0.098510000000     0.657620000000     0.489610000000     0.0462834  
H173     H      0.063740000000     0.651110000000     0.460110000000     0.0495754  
H174     H      0.177340000000     0.725280000000     0.427420000000     0.0397459  
H175     H      0.147460000000     0.691830000000     0.471580000000     0.0403029  
H176     H      0.146050000000     0.730720000000     0.337210000000     0.0518831  
H177     H      0.079780000000     0.647950000000     0.395720000000     0.0415353  
H178     H      0.109910000000     0.681130000000     0.351520000000     0.0428553  
H179     H      0.169390000000     0.753040000000     0.369420000000     0.0388953  
H180     H      0.122060000000     0.602770000000     0.447670000000     0.106458   
H181     H      0.198300000000     0.856750000000     0.173590000000     0.10478    
H182     H      0.120080000000     0.870390000000     0.020130000000     0.0388136  
H183     H      0.080020000000     0.878380000000     0.042040000000     0.0542613  
H184     H      0.187180000000     0.815810000000     0.102910000000     0.0419793  
H185     H      0.166610000000     0.843550000000     0.050630000000     0.0393035  
H186     H      0.136670000000     0.818100000000     0.185150000000     0.0458066  
H187     H      0.083880000000     0.892380000000     0.106750000000     0.0466556  
H188     H      0.104600000000     0.864770000000     0.159070000000     0.0411513  
H189     H      0.162090000000     0.790510000000     0.159120000000     0.0498202  
H190     H      0.141230000000     0.929000000000     0.042180000000     0.104767   
H191     H      0.436740000000     0.607430000000     0.088690000000     0.106301   
H192     H      0.300500000000     0.635800000000     0.192920000000     0.0475031  
H193     H      0.335430000000     0.620720000000     0.219060000000     0.0455726  
H194     H      0.344700000000     0.627270000000     0.078610000000     0.0406236  
H195     H      0.318070000000     0.652640000000     0.129440000000     0.0423388  
H196     H      0.391700000000     0.546150000000     0.076630000000     0.0476468  
H197     H      0.375640000000     0.581760000000     0.192470000000     0.0402676  
H198     H      0.401860000000     0.556040000000     0.141600000000     0.0414148  
H199     H      0.378730000000     0.582380000000     0.051940000000     0.0450665  
H200     H      0.363070000000     0.679570000000     0.185480000000     0.105933   
H201     H      0.365470000000     0.828390000000     0.336360000000     0.104065   
H202     H      0.435840000000     0.975760000000     0.386870000000     0.0414148  
H203     H      0.407260000000     0.979390000000     0.422630000000     0.0543673  
H204     H      0.336840000000     0.876330000000     0.417110000000     0.0398113  
H205     H      0.378480000000     0.917690000000     0.440940000000     0.0453739  
H206     H      0.307540000000     0.850960000000     0.370050000000     0.0412041  
H207     H      0.410760000000     0.945940000000     0.339800000000     0.0395469  
H208     H      0.368780000000     0.904890000000     0.315960000000     0.0454212  
H209     H      0.305090000000     0.878460000000     0.333810000000     0.0545739  
H210     H      0.456110000000     0.918310000000     0.421970000000     0.103867   
H211     H      0.351080000000     0.684600000000     0.349870000000     0.105852   
H212     H      0.503640000000     0.643380000000     0.431870000000     0.0422767  
H213     H      0.474560000000     0.656620000000     0.464930000000     0.0489578  
H214     H      0.446520000000     0.671610000000     0.327930000000     0.0420006  
H215     H      0.481030000000     0.640540000000     0.370530000000     0.0405633  
H216     H      0.391870000000     0.746250000000     0.346850000000     0.0463826  
H217     H      0.422680000000     0.689790000000     0.450430000000     0.041897   
H218     H      0.388360000000     0.721140000000     0.407810000000     0.0416381  
H219     H      0.408630000000     0.719730000000     0.313980000000     0.0508317  
H220     H      0.445030000000     0.598930000000     0.425650000000     0.105536   
H221     H      0.096540000000     0.965140000000     0.402930000000     0.104989   
H222     H      0.142320000000     0.801640000000     0.337850000000     0.0432551  
H223     H      0.127160000000     0.820490000000     0.299140000000     0.0487302  
H224     H      0.073570000000     0.926070000000     0.329690000000     0.0399421  
H225     H      0.108780000000     0.883780000000     0.298530000000     0.0422442  
H226     H      0.039040000000     0.938610000000     0.379330000000     0.0380872  
H227     H      0.129790000000     0.829680000000     0.392000000000     0.0391364  
H228     H      0.094490000000     0.871950000000     0.423190000000     0.0462544  
H229     H      0.040300000000     0.910250000000     0.414820000000     0.0561741  
H230     H      0.185570000000     0.860810000000     0.325860000000     0.105573   
H231     H      0.365390000000     0.844780000000     0.183080000000     0.106003   
H232     H      0.380720000000     0.951570000000     0.049580000000     0.0446503  
H233     H      0.397890000000     0.982690000000     0.078730000000     0.0478292  
H234     H      0.320220000000     0.873490000000     0.119310000000     0.0429677  
H235     H      0.349110000000     0.901740000000     0.071170000000     0.0405034  
H236     H      0.330430000000     0.903030000000     0.210130000000     0.045012   
H237     H      0.407080000000     0.965670000000     0.140670000000     0.0409488  
H238     H      0.378370000000     0.937250000000     0.188810000000     0.0401445  
H239     H      0.299840000000     0.885610000000     0.181030000000     0.0514927  
H240     H      0.439630000000     0.918360000000     0.077880000000     0.105022   
H241     H      0.172270000000     0.663700000000     0.701070000000     0.105755   
H242     H      0.158890000000     0.554770000000     0.573330000000     0.0495174  
H243     H      0.138890000000     0.525640000000     0.602750000000     0.0465786  
H244     H      0.226030000000     0.628020000000     0.642930000000     0.041414   
H245     H      0.197530000000     0.599050000000     0.594980000000     0.0415493  
H246     H      0.205920000000     0.609370000000     0.734700000000     0.0445369  
H247     H      0.128290000000     0.547390000000     0.664470000000     0.0420659  
H248     H      0.156580000000     0.576650000000     0.712390000000     0.0410963  
H249     H      0.238890000000     0.624420000000     0.706770000000     0.0484216  
H250     H      0.099990000000     0.588790000000     0.606620000000     0.105827   
H251     H      0.208910000000     0.694030000000     0.866080000000     0.105484   
H252     H      0.098510000000     0.657620000000     0.989610000000     0.0463459  
H253     H      0.063740000000     0.651110000000     0.960110000000     0.0495888  
H254     H      0.177340000000     0.725280000000     0.927420000000     0.0397747  
H255     H      0.147460000000     0.691830000000     0.971580000000     0.0403563  
H256     H      0.146050000000     0.730720000000     0.837210000000     0.0518835  
H257     H      0.079780000000     0.647950000000     0.895720000000     0.0415355  
H258     H      0.109910000000     0.681130000000     0.851520000000     0.0428542  
H259     H      0.169390000000     0.753040000000     0.869420000000     0.0389055  
H260     H      0.122060000000     0.602770000000     0.947670000000     0.106481   
H261     H      0.198300000000     0.856750000000     0.673590000000     0.104782   
H262     H      0.120080000000     0.870390000000     0.520130000000     0.0388829  
H263     H      0.080020000000     0.878380000000     0.542040000000     0.0543007  
H264     H      0.187180000000     0.815810000000     0.602910000000     0.0419962  
H265     H      0.166610000000     0.843550000000     0.550630000000     0.0393765  
H266     H      0.136670000000     0.818100000000     0.685150000000     0.0458051  
H267     H      0.083880000000     0.892380000000     0.606750000000     0.0466616  
H268     H      0.104600000000     0.864770000000     0.659070000000     0.0411471  
H269     H      0.162090000000     0.790510000000     0.659120000000     0.049835   
H270     H      0.141230000000     0.929000000000     0.542190000000     0.104789   
H271     H      0.436740000000     0.607430000000     0.588690000000     0.106319   
H272     H      0.300500000000     0.635800000000     0.692920000000     0.0475065  
H273     H      0.335430000000     0.620720000000     0.719060000000     0.0455739  
H274     H      0.344700000000     0.627270000000     0.578610000000     0.0406566  
H275     H      0.318070000000     0.652640000000     0.629440000000     0.0423555  
H276     H      0.391700000000     0.546150000000     0.576630000000     0.0476574  
H277     H      0.375640000000     0.581760000000     0.692460000000     0.0402916  
H278     H      0.401860000000     0.556040000000     0.641600000000     0.041407   
H279     H      0.378730000000     0.582380000000     0.551940000000     0.0451103  
H280     H      0.363070000000     0.679570000000     0.685480000000     0.105938   
H281     H      0.365470000000     0.828390000000     0.836360000000     0.104069   
H282     H      0.435840000000     0.975760000000     0.886870000000     0.0414386  
H283     H      0.407260000000     0.979390000000     0.922630000000     0.0544083  
H284     H      0.336840000000     0.876330000000     0.917110000000     0.039842   
H285     H      0.378480000000     0.917690000000     0.940940000000     0.0454261  
H286     H      0.307540000000     0.850960000000     0.870050000000     0.0412236  
H287     H      0.410760000000     0.945940000000     0.839800000000     0.0395511  
H288     H      0.368780000000     0.904890000000     0.815960000000     0.045417   
H289     H      0.305090000000     0.878460000000     0.833810000000     0.0545807  
H290     H      0.456110000000     0.918310000000     0.921970000000     0.103889   
H291     H      0.351080000000     0.684600000000     0.849870000000     0.105862   
H292     H      0.503640000000     0.643380000000     0.931870000000     0.0422771  
H293     H      0.474560000000     0.656620000000     0.964930000000     0.0490002  
H294     H      0.446520000000     0.671610000000     0.827930000000     0.0419991  
H295     H      0.481030000000     0.640540000000     0.870530000000     0.0405628  
H296     H      0.391870000000     0.746250000000     0.846850000000     0.0463886  
H297     H      0.422680000000     0.689790000000     0.950430000000     0.0419425  
H298     H      0.388360000000     0.721140000000     0.907810000000     0.0416608  
H299     H      0.408630000000     0.719730000000     0.813980000000     0.0508314  
H300     H      0.445030000000     0.598930000000     0.925650000000     0.105552   
H301     H      0.096540000000     0.965140000000     0.902930000000     0.105      
H302     H      0.142320000000     0.801640000000     0.837850000000     0.0432509  
H303     H      0.127160000000     0.820490000000     0.799130000000     0.0487148  
H304     H      0.073570000000     0.926070000000     0.829690000000     0.0399425  
H305     H      0.108780000000     0.883780000000     0.798530000000     0.0422384  
H306     H      0.039040000000     0.938610000000     0.879330000000     0.0380891  
H307     H      0.129790000000     0.829680000000     0.892000000000     0.0391546  
H308     H      0.094490000000     0.871950000000     0.923190000000     0.0462985  
H309     H      0.040300000000     0.910250000000     0.914820000000     0.0561939  
H310     H      0.185570000000     0.860810000000     0.825860000000     0.10558    
H311     H      0.365390000000     0.844780000000     0.683080000000     0.106009   
H312     H      0.380720000000     0.951570000000     0.549580000000     0.0446952  
H313     H      0.397890000000     0.982690000000     0.578730000000     0.0478368  
H314     H      0.320220000000     0.873490000000     0.619310000000     0.0429841  
H315     H      0.349110000000     0.901740000000     0.571170000000     0.0405406  
H316     H      0.330430000000     0.903030000000     0.710130000000     0.0450098  
H317     H      0.407080000000     0.965670000000     0.640670000000     0.0409471  
H318     H      0.378370000000     0.937250000000     0.688810000000     0.0401419  
H319     H      0.299840000000     0.885610000000     0.681030000000     0.0514985  
H320     H      0.439630000000     0.918360000000     0.577880000000     0.10504    
H321     H      0.672270000000     0.163700000000     0.201070000000     0.105757   
H322     H      0.658890000000     0.054770000000     0.073330000000     0.0494694  
H323     H      0.638890000000     0.025640000000     0.102750000000     0.0465505  
H324     H      0.726030000000     0.128020000000     0.142930000000     0.0413978  
H325     H      0.697530000000     0.099050000000     0.094980000000     0.0415147  
H326     H      0.705920000000     0.109370000000     0.234700000000     0.0445265  
H327     H      0.628290000000     0.047400000000     0.164460000000     0.0420827  
H328     H      0.656580000000     0.076650000000     0.212390000000     0.0410851  
H329     H      0.738890000000     0.124420000000     0.206760000000     0.0484051  
H330     H      0.599990000000     0.088790000000     0.106620000000     0.105823   
H331     H      0.708910000000     0.194030000000     0.366080000000     0.10547    
H332     H      0.598510000000     0.157620000000     0.489610000000     0.0462943  
H333     H      0.563740000000     0.151110000000     0.460110000000     0.0495979  
H334     H      0.677330000000     0.225280000000     0.427420000000     0.0397683  
H335     H      0.647460000000     0.191830000000     0.471580000000     0.0402999  
H336     H      0.646060000000     0.230720000000     0.337210000000     0.051904   
H337     H      0.579780000000     0.147950000000     0.395720000000     0.0415466  
H338     H      0.609910000000     0.181130000000     0.351520000000     0.0428688  
H339     H      0.669390000000     0.253040000000     0.369420000000     0.0389046  
H340     H      0.622060000000     0.102770000000     0.447670000000     0.106447   
H341     H      0.698300000000     0.356750000000     0.173590000000     0.104781   
H342     H      0.620080000000     0.370400000000     0.020130000000     0.0388346  
H343     H      0.580020000000     0.378380000000     0.042040000000     0.0542875  
H344     H      0.687180000000     0.315810000000     0.102910000000     0.0419829  
H345     H      0.666610000000     0.343550000000     0.050630000000     0.0393048  
H346     H      0.636680000000     0.318100000000     0.185150000000     0.0458311  
H347     H      0.583880000000     0.392380000000     0.106750000000     0.0466655  
H348     H      0.604600000000     0.364770000000     0.159070000000     0.0411611  
H349     H      0.662090000000     0.290510000000     0.159120000000     0.0498355  
H350     H      0.641230000000     0.429000000000     0.042180000000     0.104751   
H351     H      0.936740000000     0.107430000000     0.088690000000     0.106314   
H352     H      0.800500000000     0.135800000000     0.192920000000     0.0474919  
H353     H      0.835430000000     0.120720000000     0.219060000000     0.0455648  
H354     H      0.844710000000     0.127270000000     0.078610000000     0.0406334  
H355     H      0.818070000000     0.152640000000     0.129440000000     0.0423321  
H356     H      0.891700000000     0.046150000000     0.076630000000     0.0476171  
H357     H      0.875650000000     0.081760000000     0.192470000000     0.0402491  
H358     H      0.901860000000     0.056040000000     0.141600000000     0.0414041  
H359     H      0.878730000000     0.082380000000     0.051940000000     0.0450528  
H360     H      0.863070000000     0.179570000000     0.185480000000     0.105944   
H361     H      0.865470000000     0.328390000000     0.336360000000     0.104083   
H362     H      0.935840000000     0.475760000000     0.386870000000     0.0414132  
H363     H      0.907260000000     0.479390000000     0.422630000000     0.0543459  
H364     H      0.836840000000     0.376330000000     0.417110000000     0.0398098  
H365     H      0.878480000000     0.417690000000     0.440940000000     0.0453795  
H366     H      0.807540000000     0.350960000000     0.370050000000     0.0411931  
H367     H      0.910750000000     0.445940000000     0.339800000000     0.0395645  
H368     H      0.868780000000     0.404890000000     0.315960000000     0.0454162  
H369     H      0.805090000000     0.378460000000     0.333810000000     0.0545594  
H370     H      0.956120000000     0.418310000000     0.421970000000     0.103879   
H371     H      0.851080000000     0.184600000000     0.349870000000     0.105847   
H372     H      0.003640000000     0.143380000000     0.431870000000     0.0421328  
H373     H      0.974560000000     0.156620000000     0.464930000000     0.0489652  
H374     H      0.946520000000     0.171610000000     0.327930000000     0.0420128  
H375     H      0.981030000000     0.140540000000     0.370530000000     0.0405911  
H376     H      0.891870000000     0.246250000000     0.346850000000     0.0463839  
H377     H      0.922680000000     0.189790000000     0.450430000000     0.0419031  
H378     H      0.888360000000     0.221140000000     0.407810000000     0.0416408  
H379     H      0.908640000000     0.219730000000     0.313980000000     0.0508261  
H380     H      0.945030000000     0.098930000000     0.425650000000     0.105531   
H381     H      0.596540000000     0.465140000000     0.402930000000     0.104963   
H382     H      0.642320000000     0.301640000000     0.337850000000     0.0432553  
H383     H      0.627160000000     0.320480000000     0.299140000000     0.0487353  
H384     H      0.573570000000     0.426070000000     0.329690000000     0.0399483  
H385     H      0.608780000000     0.383780000000     0.298530000000     0.0422462  
H386     H      0.539040000000     0.438610000000     0.379330000000     0.0381148  
H387     H      0.629790000000     0.329680000000     0.392000000000     0.0391397  
H388     H      0.594490000000     0.371950000000     0.423190000000     0.046268   
H389     H      0.540300000000     0.410250000000     0.414820000000     0.0562218  
H390     H      0.685570000000     0.360810000000     0.325860000000     0.105566   
H391     H      0.865390000000     0.344780000000     0.183080000000     0.106022   
H392     H      0.880720000000     0.451570000000     0.049580000000     0.0446587  
H393     H      0.897890000000     0.482690000000     0.078730000000     0.0478234  
H394     H      0.820220000000     0.373480000000     0.119310000000     0.0429271  
H395     H      0.849110000000     0.401740000000     0.071170000000     0.0405108  
H396     H      0.830430000000     0.403030000000     0.210130000000     0.044996   
H397     H      0.907080000000     0.465670000000     0.140670000000     0.0409234  
H398     H      0.878370000000     0.437250000000     0.188810000000     0.0401352  
H399     H      0.799840000000     0.385610000000     0.181030000000     0.0514783  
H400     H      0.939630000000     0.418360000000     0.077880000000     0.105035   
H401     H      0.672270000000     0.163700000000     0.701070000000     0.105761   
H402     H      0.658890000000     0.054770000000     0.573330000000     0.0495012  
H403     H      0.638890000000     0.025640000000     0.602750000000     0.0465535  
H404     H      0.726030000000     0.128020000000     0.642930000000     0.0414102  
H405     H      0.697530000000     0.099050000000     0.594980000000     0.0415443  
H406     H      0.705920000000     0.109370000000     0.734700000000     0.0445261  
H407     H      0.628290000000     0.047400000000     0.664470000000     0.0420748  
H408     H      0.656580000000     0.076650000000     0.712390000000     0.0410847  
H409     H      0.738890000000     0.124420000000     0.706770000000     0.048413   
H410     H      0.599990000000     0.088790000000     0.606620000000     0.105837   
H411     H      0.708910000000     0.194030000000     0.866080000000     0.105482   
H412     H      0.598510000000     0.157620000000     0.989610000000     0.0463568  
H413     H      0.563740000000     0.151110000000     0.960110000000     0.0496113  
H414     H      0.677330000000     0.225280000000     0.927420000000     0.0397971  
H415     H      0.647460000000     0.191830000000     0.971580000000     0.0403533  
H416     H      0.646060000000     0.230720000000     0.837210000000     0.0519044  
H417     H      0.579780000000     0.147950000000     0.895720000000     0.0415468  
H418     H      0.609910000000     0.181130000000     0.851520000000     0.0428677  
H419     H      0.669390000000     0.253040000000     0.869420000000     0.0389147  
H420     H      0.622060000000     0.102770000000     0.947670000000     0.10647    
H421     H      0.698300000000     0.356750000000     0.673590000000     0.104782   
H422     H      0.620080000000     0.370400000000     0.520130000000     0.0389039  
H423     H      0.580020000000     0.378380000000     0.542040000000     0.0543269  
H424     H      0.687180000000     0.315810000000     0.602910000000     0.0419998  
H425     H      0.666610000000     0.343550000000     0.550630000000     0.0393778  
H426     H      0.636680000000     0.318100000000     0.685150000000     0.0458296  
H427     H      0.583880000000     0.392380000000     0.606750000000     0.0466715  
H428     H      0.604600000000     0.364770000000     0.659070000000     0.0411568  
H429     H      0.662090000000     0.290510000000     0.659120000000     0.0498503  
H430     H      0.641230000000     0.429000000000     0.542190000000     0.104772   
H431     H      0.936740000000     0.107430000000     0.588690000000     0.106332   
H432     H      0.800500000000     0.135800000000     0.692920000000     0.0474953  
H433     H      0.835430000000     0.120720000000     0.719060000000     0.045566   
H434     H      0.844710000000     0.127270000000     0.578610000000     0.0406665  
H435     H      0.818070000000     0.152640000000     0.629440000000     0.0423488  
H436     H      0.891700000000     0.046150000000     0.576630000000     0.0476278  
H437     H      0.875650000000     0.081760000000     0.692460000000     0.0402731  
H438     H      0.901860000000     0.056040000000     0.641600000000     0.0413962  
H439     H      0.878730000000     0.082380000000     0.551940000000     0.0450966  
H440     H      0.863070000000     0.179570000000     0.685480000000     0.10595    
H441     H      0.865470000000     0.328390000000     0.836360000000     0.104088   
H442     H      0.935840000000     0.475760000000     0.886870000000     0.041437   
H443     H      0.907260000000     0.479390000000     0.922630000000     0.0543869  
H444     H      0.836840000000     0.376330000000     0.917110000000     0.0398406  
H445     H      0.878480000000     0.417690000000     0.940940000000     0.0454316  
H446     H      0.807540000000     0.350960000000     0.870050000000     0.0412125  
H447     H      0.910750000000     0.445940000000     0.839800000000     0.0395687  
H448     H      0.868780000000     0.404890000000     0.815960000000     0.045412   
H449     H      0.805090000000     0.378460000000     0.833810000000     0.0545661  
H450     H      0.956120000000     0.418310000000     0.921970000000     0.1039     
H451     H      0.851080000000     0.184600000000     0.849870000000     0.105857   
H452     H      0.003640000000     0.143380000000     0.931870000000     0.0421332  
H453     H      0.974560000000     0.156620000000     0.964930000000     0.0490076  
H454     H      0.946520000000     0.171610000000     0.827930000000     0.0420113  
H455     H      0.981030000000     0.140540000000     0.870530000000     0.0405906  
H456     H      0.891870000000     0.246250000000     0.846850000000     0.0463899  
H457     H      0.922680000000     0.189790000000     0.950430000000     0.0419485  
H458     H      0.888360000000     0.221140000000     0.907810000000     0.0416634  
H459     H      0.908640000000     0.219730000000     0.813980000000     0.0508258  
H460     H      0.945030000000     0.098930000000     0.925650000000     0.105547   
H461     H      0.596540000000     0.465140000000     0.902930000000     0.104974   
H462     H      0.642320000000     0.301640000000     0.837850000000     0.0432511  
H463     H      0.627160000000     0.320480000000     0.799130000000     0.0487198  
H464     H      0.573570000000     0.426070000000     0.829690000000     0.0399487  
H465     H      0.608780000000     0.383780000000     0.798530000000     0.0422404  
H466     H      0.539040000000     0.438610000000     0.879330000000     0.0381167  
H467     H      0.629790000000     0.329680000000     0.892000000000     0.0391579  
H468     H      0.594490000000     0.371950000000     0.923190000000     0.0463121  
H469     H      0.540300000000     0.410250000000     0.914820000000     0.0562416  
H470     H      0.685570000000     0.360810000000     0.825860000000     0.105572   
H471     H      0.865390000000     0.344780000000     0.683080000000     0.106027   
H472     H      0.880720000000     0.451570000000     0.549580000000     0.0447036  
H473     H      0.897890000000     0.482690000000     0.578730000000     0.0478309  
H474     H      0.820220000000     0.373480000000     0.619310000000     0.0429435  
H475     H      0.849110000000     0.401740000000     0.571170000000     0.040548   
H476     H      0.830430000000     0.403030000000     0.710130000000     0.0449937  
H477     H      0.907080000000     0.465670000000     0.640670000000     0.0409217  
H478     H      0.878370000000     0.437250000000     0.688810000000     0.0401326  
H479     H      0.799840000000     0.385610000000     0.681030000000     0.0514841  
H480     H      0.939630000000     0.418360000000     0.577880000000     0.105053   
H481     H      0.672270000000     0.663700000000     0.201070000000     0.105757   
H482     H      0.658890000000     0.554770000000     0.073330000000     0.0494848  
H483     H      0.638890000000     0.525640000000     0.102750000000     0.0465789  
H484     H      0.726030000000     0.628020000000     0.142930000000     0.0414012  
H485     H      0.697530000000     0.599050000000     0.094980000000     0.0415197  
H486     H      0.705920000000     0.609370000000     0.234700000000     0.0445385  
H487     H      0.628290000000     0.547390000000     0.164460000000     0.0420846  
H488     H      0.656580000000     0.576650000000     0.212390000000     0.0411035  
H489     H      0.738890000000     0.624420000000     0.206760000000     0.0484117  
H490     H      0.599990000000     0.588790000000     0.106620000000     0.105827   
H491     H      0.708910000000     0.694030000000     0.366080000000     0.105475   
H492     H      0.598510000000     0.657620000000     0.489610000000     0.0462937  
H493     H      0.563740000000     0.651110000000     0.460110000000     0.0495984  
H494     H      0.677330000000     0.725280000000     0.427420000000     0.0397688  
H495     H      0.647460000000     0.691830000000     0.471580000000     0.0403005  
H496     H      0.646060000000     0.730720000000     0.337210000000     0.0519045  
H497     H      0.579780000000     0.647950000000     0.395720000000     0.0415527  
H498     H      0.609910000000     0.681130000000     0.351520000000     0.0428721  
H499     H      0.669390000000     0.753040000000     0.369420000000     0.0389043  
H500     H      0.622060000000     0.602770000000     0.447670000000     0.106459   
H501     H      0.698300000000     0.856750000000     0.173590000000     0.104788   
H502     H      0.620080000000     0.870390000000     0.020130000000     0.038819   
H503     H      0.580020000000     0.878380000000     0.042040000000     0.0542802  
H504     H      0.687180000000     0.815810000000     0.102910000000     0.0419836  
H505     H      0.666610000000     0.843550000000     0.050630000000     0.039304   
H506     H      0.636680000000     0.818100000000     0.185150000000     0.0458318  
H507     H      0.583880000000     0.892380000000     0.106750000000     0.0466732  
H508     H      0.604600000000     0.864770000000     0.159070000000     0.0411672  
H509     H      0.662090000000     0.790510000000     0.159120000000     0.049834   
H510     H      0.641230000000     0.929000000000     0.042180000000     0.104766   
H511     H      0.936740000000     0.607430000000     0.088690000000     0.106316   
H512     H      0.800500000000     0.635800000000     0.192920000000     0.047496   
H513     H      0.835430000000     0.620720000000     0.219060000000     0.0455744  
H514     H      0.844710000000     0.627270000000     0.078610000000     0.0406382  
H515     H      0.818070000000     0.652640000000     0.129440000000     0.0423322  
H516     H      0.891700000000     0.546150000000     0.076630000000     0.0476504  
H517     H      0.875650000000     0.581760000000     0.192470000000     0.0402646  
H518     H      0.901860000000     0.556040000000     0.141600000000     0.0414289  
H519     H      0.878730000000     0.582380000000     0.051940000000     0.0450664  
H520     H      0.863070000000     0.679570000000     0.185480000000     0.105945   
H521     H      0.865470000000     0.828390000000     0.336360000000     0.104076   
H522     H      0.935840000000     0.975760000000     0.386870000000     0.0414332  
H523     H      0.907260000000     0.979390000000     0.422630000000     0.0543683  
H524     H      0.836840000000     0.876330000000     0.417110000000     0.0398127  
H525     H      0.878480000000     0.917690000000     0.440940000000     0.0453852  
H526     H      0.807540000000     0.850960000000     0.370050000000     0.0411982  
H527     H      0.910750000000     0.945940000000     0.339800000000     0.0395789  
H528     H      0.868780000000     0.904890000000     0.315960000000     0.045422   
H529     H      0.805090000000     0.878460000000     0.333810000000     0.0545667  
H530     H      0.956120000000     0.918310000000     0.421970000000     0.103883   
H531     H      0.851080000000     0.684600000000     0.349870000000     0.105852   
H532     H      0.003640000000     0.643380000000     0.431870000000     0.0421033  
H533     H      0.974560000000     0.656620000000     0.464930000000     0.0489308  
H534     H      0.946520000000     0.671610000000     0.327930000000     0.0420204  
H535     H      0.981030000000     0.640540000000     0.370530000000     0.0405919  
H536     H      0.891870000000     0.746250000000     0.346850000000     0.0463852  
H537     H      0.922680000000     0.689790000000     0.450430000000     0.0418965  
H538     H      0.888360000000     0.721140000000     0.407810000000     0.0416443  
H539     H      0.908640000000     0.719730000000     0.313980000000     0.0508278  
H540     H      0.945030000000     0.598930000000     0.425650000000     0.105547   
H541     H      0.596540000000     0.965140000000     0.402930000000     0.104994   
H542     H      0.642320000000     0.801640000000     0.337850000000     0.0432587  
H543     H      0.627160000000     0.820490000000     0.299140000000     0.0487382  
H544     H      0.573570000000     0.926070000000     0.329690000000     0.0399612  
H545     H      0.608780000000     0.883780000000     0.298530000000     0.0422522  
H546     H      0.539040000000     0.938610000000     0.379330000000     0.0381257  
H547     H      0.629790000000     0.829680000000     0.392000000000     0.0391397  
H548     H      0.594490000000     0.871950000000     0.423190000000     0.0462636  
H549     H      0.540300000000     0.910250000000     0.414820000000     0.0562119  
H550     H      0.685570000000     0.860810000000     0.325860000000     0.105571   
H551     H      0.865390000000     0.844780000000     0.183080000000     0.106013   
H552     H      0.880720000000     0.951570000000     0.049580000000     0.0446548  
H553     H      0.897890000000     0.982690000000     0.078730000000     0.0478351  
H554     H      0.820220000000     0.873490000000     0.119310000000     0.0429702  
H555     H      0.849110000000     0.901740000000     0.071170000000     0.0405037  
H556     H      0.830430000000     0.903030000000     0.210130000000     0.0450107  
H557     H      0.907080000000     0.965670000000     0.140670000000     0.0409419  
H558     H      0.878370000000     0.937250000000     0.188810000000     0.0401553  
H559     H      0.799840000000     0.885610000000     0.181030000000     0.0514897  
H560     H      0.939630000000     0.918360000000     0.077880000000     0.105038   
H561     H      0.672270000000     0.663700000000     0.701070000000     0.105761   
H562     H      0.658890000000     0.554770000000     0.573330000000     0.0495166  
H563     H      0.638890000000     0.525640000000     0.602750000000     0.0465819  
H564     H      0.726030000000     0.628020000000     0.642930000000     0.0414135  
H565     H      0.697530000000     0.599050000000     0.594980000000     0.0415493  
H566     H      0.705920000000     0.609370000000     0.734700000000     0.0445381  
H567     H      0.628290000000     0.547390000000     0.664470000000     0.0420767  
H568     H      0.656580000000     0.576650000000     0.712390000000     0.0411031  
H569     H      0.738890000000     0.624420000000     0.706770000000     0.0484196  
H570     H      0.599990000000     0.588790000000     0.606620000000     0.105841   
H571     H      0.708910000000     0.694030000000     0.866080000000     0.105486   
H572     H      0.598510000000     0.657620000000     0.989610000000     0.0463562  
H573     H      0.563740000000     0.651110000000     0.960110000000     0.0496118  
H574     H      0.677330000000     0.725280000000     0.927420000000     0.0397976  
H575     H      0.647460000000     0.691830000000     0.971580000000     0.0403539  
H576     H      0.646060000000     0.730720000000     0.837210000000     0.0519049  
H577     H      0.579780000000     0.647950000000     0.895720000000     0.0415529  
H578     H      0.609910000000     0.681130000000     0.851520000000     0.042871   
H579     H      0.669390000000     0.753040000000     0.869420000000     0.0389144  
H580     H      0.622060000000     0.602770000000     0.947670000000     0.106483   
H581     H      0.698300000000     0.856750000000     0.673590000000     0.10479    
H582     H      0.620080000000     0.870390000000     0.520130000000     0.0388883  
H583     H      0.580020000000     0.878380000000     0.542040000000     0.0543197  
H584     H      0.687180000000     0.815810000000     0.602910000000     0.0420006  
H585     H      0.666610000000     0.843550000000     0.550630000000     0.0393769  
H586     H      0.636680000000     0.818100000000     0.685150000000     0.0458303  
H587     H      0.583880000000     0.892380000000     0.606750000000     0.0466791  
H588     H      0.604600000000     0.864770000000     0.659070000000     0.0411629  
H589     H      0.662090000000     0.790510000000     0.659120000000     0.0498488  
H590     H      0.641230000000     0.929000000000     0.542190000000     0.104788   
H591     H      0.936740000000     0.607430000000     0.588690000000     0.106334   
H592     H      0.800500000000     0.635800000000     0.692920000000     0.0474994  
H593     H      0.835430000000     0.620720000000     0.719060000000     0.0455757  
H594     H      0.844710000000     0.627270000000     0.578610000000     0.0406712  
H595     H      0.818070000000     0.652640000000     0.629440000000     0.0423489  
H596     H      0.891700000000     0.546150000000     0.576630000000     0.0476611  
H597     H      0.875650000000     0.581760000000     0.692460000000     0.0402886  
H598     H      0.901860000000     0.556040000000     0.641600000000     0.041421   
H599     H      0.878730000000     0.582380000000     0.551940000000     0.0451103  
H600     H      0.863070000000     0.679570000000     0.685480000000     0.10595    
H601     H      0.865470000000     0.828390000000     0.836360000000     0.104081   
H602     H      0.935840000000     0.975760000000     0.886870000000     0.041457   
H603     H      0.907260000000     0.979390000000     0.922630000000     0.0544093  
H604     H      0.836840000000     0.876330000000     0.917110000000     0.0398434  
H605     H      0.878480000000     0.917690000000     0.940940000000     0.0454373  
H606     H      0.807540000000     0.850960000000     0.870050000000     0.0412176  
H607     H      0.910750000000     0.945940000000     0.839800000000     0.039583   
H608     H      0.868780000000     0.904890000000     0.815960000000     0.0454178  
H609     H      0.805090000000     0.878460000000     0.833810000000     0.0545735  
H610     H      0.956120000000     0.918310000000     0.921970000000     0.103904   
H611     H      0.851080000000     0.684600000000     0.849870000000     0.105862   
H612     H      0.003640000000     0.643380000000     0.931870000000     0.0421037  
H613     H      0.974560000000     0.656620000000     0.964930000000     0.0489732  
H614     H      0.946520000000     0.671610000000     0.827930000000     0.042019   
H615     H      0.981030000000     0.640540000000     0.870530000000     0.0405913  
H616     H      0.891870000000     0.746250000000     0.846850000000     0.0463912  
H617     H      0.922680000000     0.689790000000     0.950430000000     0.0419419  
H618     H      0.888360000000     0.721140000000     0.907810000000     0.0416669  
H619     H      0.908640000000     0.719730000000     0.813980000000     0.0508275  
H620     H      0.945030000000     0.598930000000     0.925650000000     0.105563   
H621     H      0.596540000000     0.965140000000     0.902930000000     0.105005   
H622     H      0.642320000000     0.801640000000     0.837850000000     0.0432546  
H623     H      0.627160000000     0.820490000000     0.799130000000     0.0487227  
H624     H      0.573570000000     0.926070000000     0.829690000000     0.0399616  
H625     H      0.608780000000     0.883780000000     0.798530000000     0.0422464  
H626     H      0.539040000000     0.938610000000     0.879330000000     0.0381276  
H627     H      0.629790000000     0.829680000000     0.892000000000     0.0391579  
H628     H      0.594490000000     0.871950000000     0.923190000000     0.0463077  
H629     H      0.540300000000     0.910250000000     0.914820000000     0.0562317  
H630     H      0.685570000000     0.860810000000     0.825860000000     0.105578   
H631     H      0.865390000000     0.844780000000     0.683080000000     0.106018   
H632     H      0.880720000000     0.951570000000     0.549580000000     0.0446997  
H633     H      0.897890000000     0.982690000000     0.578730000000     0.0478426  
H634     H      0.820220000000     0.873490000000     0.619310000000     0.0429865  
H635     H      0.849110000000     0.901740000000     0.571170000000     0.0405409  
H636     H      0.830430000000     0.903030000000     0.710130000000     0.0450085  
H637     H      0.907080000000     0.965670000000     0.640670000000     0.0409402  
H638     H      0.878370000000     0.937250000000     0.688810000000     0.0401527  
H639     H      0.799840000000     0.885610000000     0.681030000000     0.0514955  
H640     H      0.939630000000     0.918360000000     0.577880000000     0.105056   
N1       N      0.195850000000     0.158200000000     0.213130000000    -0.210637   
N2       N      0.108920000000     0.069300000000     0.090410000000    -0.210818   
N3       N      0.196090000000     0.210380000000     0.349040000000    -0.210072   
N4       N      0.100830000000     0.110940000000     0.462190000000    -0.210534   
N5       N      0.189330000000     0.332470000000     0.181280000000    -0.211147   
N6       N      0.115530000000     0.420790000000     0.039200000000    -0.210311   
N7       N      0.428670000000     0.086740000000     0.073520000000    -0.211382   
N8       N      0.341720000000     0.171130000000     0.199680000000    -0.211356   
N9       N      0.340250000000     0.336040000000     0.329920000000    -0.210212   
N10      N      0.448690000000     0.443570000000     0.428060000000    -0.210088   
N11      N      0.359840000000     0.204090000000     0.333580000000    -0.20866    
N12      N      0.463730000000     0.108060000000     0.442720000000    -0.20993    
N13      N      0.076410000000     0.452520000000     0.415730000000    -0.208953   
N14      N      0.176350000000     0.337660000000     0.315510000000    -0.209914   
N15      N      0.341730000000     0.352390000000     0.193790000000    -0.211026   
N16      N      0.431570000000     0.441450000000     0.066520000000    -0.211684   
N17      N      0.195850000000     0.158200000000     0.713130000000    -0.210636   
N18      N      0.108920000000     0.069300000000     0.590410000000    -0.210815   
N19      N      0.196090000000     0.210380000000     0.849040000000    -0.210071   
N20      N      0.100830000000     0.110940000000     0.962190000000    -0.210546   
N21      N      0.189330000000     0.332470000000     0.681280000000    -0.21111    
N22      N      0.115530000000     0.420790000000     0.539200000000    -0.210295   
N23      N      0.428670000000     0.086740000000     0.573520000000    -0.211378   
N24      N      0.341720000000     0.171130000000     0.699680000000    -0.211355   
N25      N      0.340250000000     0.336040000000     0.829920000000    -0.21021    
N26      N      0.448690000000     0.443570000000     0.928060000000    -0.210077   
N27      N      0.359840000000     0.204090000000     0.833580000000    -0.208659   
N28      N      0.463730000000     0.108060000000     0.942720000000    -0.209955   
N29      N      0.076410000000     0.452520000000     0.915730000000    -0.208937   
N30      N      0.176350000000     0.337660000000     0.815510000000    -0.20992    
N31      N      0.341730000000     0.352390000000     0.693790000000    -0.211025   
N32      N      0.431570000000     0.441450000000     0.566520000000    -0.211681   
N33      N      0.195850000000     0.658200000000     0.213130000000    -0.210636   
N34      N      0.108920000000     0.569300000000     0.090410000000    -0.210815   
N35      N      0.196090000000     0.710380000000     0.349040000000    -0.210071   
N36      N      0.100830000000     0.610940000000     0.462190000000    -0.210534   
N37      N      0.189330000000     0.832470000000     0.181280000000    -0.211151   
N38      N      0.115530000000     0.920790000000     0.039200000000    -0.210311   
N39      N      0.428670000000     0.586740000000     0.073520000000    -0.211375   
N40      N      0.341720000000     0.671130000000     0.199680000000    -0.211355   
N41      N      0.340250000000     0.836040000000     0.329920000000    -0.210188   
N42      N      0.448690000000     0.943570000000     0.428060000000    -0.21012    
N43      N      0.359840000000     0.704090000000     0.333580000000    -0.208658   
N44      N      0.463730000000     0.608060000000     0.442720000000    -0.209943   
N45      N      0.076410000000     0.952520000000     0.415730000000    -0.209004   
N46      N      0.176350000000     0.837660000000     0.315510000000    -0.209917   
N47      N      0.341730000000     0.852390000000     0.193790000000    -0.210986   
N48      N      0.431570000000     0.941450000000     0.066520000000    -0.211687   
N49      N      0.195850000000     0.658200000000     0.713130000000    -0.210635   
N50      N      0.108920000000     0.569300000000     0.590410000000    -0.210812   
N51      N      0.196090000000     0.710380000000     0.849040000000    -0.210071   
N52      N      0.100830000000     0.610940000000     0.962190000000    -0.210545   
N53      N      0.189330000000     0.832470000000     0.681280000000    -0.211114   
N54      N      0.115530000000     0.920790000000     0.539200000000    -0.210295   
N55      N      0.428670000000     0.586740000000     0.573520000000    -0.211371   
N56      N      0.341720000000     0.671130000000     0.699680000000    -0.211354   
N57      N      0.340250000000     0.836040000000     0.829920000000    -0.210185   
N58      N      0.448690000000     0.943570000000     0.928060000000    -0.210109   
N59      N      0.359840000000     0.704090000000     0.833580000000    -0.208657   
N60      N      0.463730000000     0.608060000000     0.942720000000    -0.209968   
N61      N      0.076410000000     0.952520000000     0.915730000000    -0.208987   
N62      N      0.176350000000     0.837660000000     0.815510000000    -0.209923   
N63      N      0.341730000000     0.852390000000     0.693790000000    -0.210985   
N64      N      0.431570000000     0.941450000000     0.566520000000    -0.211684   
N65      N      0.695850000000     0.158200000000     0.213130000000    -0.210639   
N66      N      0.608920000000     0.069300000000     0.090410000000    -0.210814   
N67      N      0.696090000000     0.210380000000     0.349040000000    -0.210097   
N68      N      0.600830000000     0.110940000000     0.462190000000    -0.210529   
N69      N      0.689330000000     0.332470000000     0.181280000000    -0.211175   
N70      N      0.615530000000     0.420790000000     0.039200000000    -0.21031    
N71      N      0.928670000000     0.086740000000     0.073520000000    -0.211374   
N72      N      0.841720000000     0.171130000000     0.199680000000    -0.211387   
N73      N      0.840250000000     0.336040000000     0.329920000000    -0.210281   
N74      N      0.948690000000     0.443570000000     0.428060000000    -0.210085   
N75      N      0.859840000000     0.204090000000     0.333580000000    -0.208661   
N76      N      0.963730000000     0.108060000000     0.442720000000    -0.20995    
N77      N      0.576410000000     0.452520000000     0.415730000000    -0.208946   
N78      N      0.676350000000     0.337660000000     0.315510000000    -0.209915   
N79      N      0.841730000000     0.352390000000     0.193790000000    -0.211053   
N80      N      0.931570000000     0.441450000000     0.066520000000    -0.211655   
N81      N      0.695850000000     0.158200000000     0.713130000000    -0.210637   
N82      N      0.608920000000     0.069300000000     0.590410000000    -0.210812   
N83      N      0.696090000000     0.210380000000     0.849040000000    -0.210097   
N84      N      0.600830000000     0.110940000000     0.962190000000    -0.210541   
N85      N      0.689330000000     0.332470000000     0.681280000000    -0.211138   
N86      N      0.615530000000     0.420790000000     0.539200000000    -0.210294   
N87      N      0.928670000000     0.086740000000     0.573520000000    -0.21137    
N88      N      0.841720000000     0.171130000000     0.699680000000    -0.211385   
N89      N      0.840250000000     0.336040000000     0.829920000000    -0.210278   
N90      N      0.948690000000     0.443570000000     0.928060000000    -0.210074   
N91      N      0.859840000000     0.204090000000     0.833580000000    -0.208661   
N92      N      0.963730000000     0.108060000000     0.942720000000    -0.209975   
N93      N      0.576410000000     0.452520000000     0.915730000000    -0.208929   
N94      N      0.676350000000     0.337660000000     0.815510000000    -0.209921   
N95      N      0.841730000000     0.352390000000     0.693790000000    -0.211052   
N96      N      0.931570000000     0.441450000000     0.566520000000    -0.211652   
N97      N      0.695850000000     0.658200000000     0.213130000000    -0.210638   
N98      N      0.608920000000     0.569300000000     0.090410000000    -0.210811   
N99      N      0.696090000000     0.710380000000     0.349040000000    -0.210097   
N100     N      0.600830000000     0.610940000000     0.462190000000    -0.210529   
N101     N      0.689330000000     0.832470000000     0.181280000000    -0.21118    
N102     N      0.615530000000     0.920790000000     0.039200000000    -0.21031    
N103     N      0.928670000000     0.586740000000     0.073520000000    -0.211368   
N104     N      0.841720000000     0.671130000000     0.199680000000    -0.211386   
N105     N      0.840250000000     0.836040000000     0.329920000000    -0.210256   
N106     N      0.948690000000     0.943570000000     0.428060000000    -0.210118   
N107     N      0.859840000000     0.704090000000     0.333580000000    -0.208659   
N108     N      0.963730000000     0.608060000000     0.442720000000    -0.209963   
N109     N      0.576410000000     0.952520000000     0.415730000000    -0.208996   
N110     N      0.676350000000     0.837660000000     0.315510000000    -0.209919   
N111     N      0.841730000000     0.852390000000     0.193790000000    -0.211013   
N112     N      0.931570000000     0.941450000000     0.066520000000    -0.211658   
N113     N      0.695850000000     0.658200000000     0.713130000000    -0.210636   
N114     N      0.608920000000     0.569300000000     0.590410000000    -0.210809   
N115     N      0.696090000000     0.710380000000     0.849040000000    -0.210097   
N116     N      0.600830000000     0.610940000000     0.962190000000    -0.21054    
N117     N      0.689330000000     0.832470000000     0.681280000000    -0.211143   
N118     N      0.615530000000     0.920790000000     0.539200000000    -0.210294   
N119     N      0.928670000000     0.586740000000     0.573520000000    -0.211364   
N120     N      0.841720000000     0.671130000000     0.699680000000    -0.211385   
N121     N      0.840250000000     0.836040000000     0.829920000000    -0.210254   
N122     N      0.948690000000     0.943570000000     0.928060000000    -0.210106   
N123     N      0.859840000000     0.704090000000     0.833580000000    -0.208659   
N124     N      0.963730000000     0.608060000000     0.942720000000    -0.209988   
N125     N      0.576410000000     0.952520000000     0.915730000000    -0.20898    
N126     N      0.676350000000     0.837660000000     0.815510000000    -0.209925   
N127     N      0.841730000000     0.852390000000     0.693790000000    -0.211012   
N128     N      0.931570000000     0.941450000000     0.566520000000    -0.211655   
O1       O      0.444200000000     0.486060000000     0.031030000000    -0.366138   
O2       O      0.098270000000     0.035790000000     0.043910000000    -0.364876   
O3       O      0.059840000000     0.434700000000     0.025180000000    -0.376436   
O4       O      0.483500000000     0.082770000000     0.053050000000    -0.375742   
O5       O      0.101380000000     0.474700000000     0.021310000000    -0.364418   
O6       O      0.442810000000     0.047030000000     0.033250000000    -0.363453   
O7       O      0.058650000000     0.074200000000     0.060940000000    -0.374028   
O8       O      0.483920000000     0.445200000000     0.040300000000    -0.379259   
O9       O      0.463560000000     0.055210000000     0.467170000000    -0.379145   
O10      O      0.081300000000     0.491410000000     0.458730000000    -0.375307   
O11      O      0.487900000000     0.443080000000     0.471000000000    -0.35983    
O12      O      0.056880000000     0.096700000000     0.498000000000    -0.36575    
O13      O      0.091640000000     0.055300000000     0.477910000000    -0.37401    
O14      O      0.456950000000     0.490800000000     0.461540000000    -0.374812   
O15      O      0.498790000000     0.095770000000     0.487970000000    -0.365225   
O16      O      0.042410000000     0.448910000000     0.462810000000    -0.365286   
O17      O      0.521970000000     0.513450000000     0.022360000000    -0.602367   
O18      O      0.296190000000     0.339190000000     0.228160000000    -0.366179   
O19      O      0.240190000000     0.178070000000     0.246270000000    -0.361643   
O20      O      0.337490000000     0.224880000000     0.222130000000    -0.375314   
O21      O      0.195590000000     0.286040000000     0.216120000000    -0.374245   
O22      O      0.300780000000     0.183820000000     0.239390000000    -0.363697   
O23      O      0.232950000000     0.329900000000     0.220040000000    -0.36602    
O24      O      0.198030000000     0.214020000000     0.230050000000    -0.377792   
O25      O      0.338250000000     0.300360000000     0.220140000000    -0.374141   
O26      O      0.228230000000     0.330720000000     0.289170000000    -0.371233   
O27      O      0.307640000000     0.202660000000     0.306670000000    -0.371145   
O28      O      0.339980000000     0.295510000000     0.288360000000    -0.36618    
O29      O      0.196560000000     0.238040000000     0.298170000000    -0.370821   
O30      O      0.242060000000     0.205850000000     0.313280000000    -0.37955    
O31      O      0.292760000000     0.327830000000     0.296540000000    -0.378522   
O32      O      0.187250000000     0.290550000000     0.282510000000    -0.357982   
O33      O      0.348340000000     0.239450000000     0.288730000000    -0.36052    
O34      O      0.267610000000     0.258860000000     0.245290000000    -0.599289   
O35      O      0.444200000000     0.486060000000     0.531030000000    -0.366131   
O36      O      0.098270000000     0.035790000000     0.543910000000    -0.364879   
O37      O      0.059840000000     0.434700000000     0.525180000000    -0.376429   
O38      O      0.483500000000     0.082770000000     0.553050000000    -0.37574    
O39      O      0.101380000000     0.474700000000     0.521310000000    -0.364399   
O40      O      0.442810000000     0.047030000000     0.533250000000    -0.363447   
O41      O      0.058650000000     0.074200000000     0.560940000000    -0.374032   
O42      O      0.483920000000     0.445200000000     0.540300000000    -0.379259   
O43      O      0.463560000000     0.055210000000     0.967170000000    -0.378962   
O44      O      0.081300000000     0.491410000000     0.958730000000    -0.375143   
O45      O      0.487900000000     0.443080000000     0.970990000000    -0.359681   
O46      O      0.056880000000     0.096700000000     0.998000000000    -0.365506   
O47      O      0.091640000000     0.055300000000     0.977910000000    -0.373831   
O48      O      0.456950000000     0.490800000000     0.961540000000    -0.374681   
O49      O      0.498790000000     0.095770000000     0.987970000000    -0.36498    
O50      O      0.042410000000     0.448910000000     0.962810000000    -0.365115   
O51      O      0.521970000000     0.513450000000     0.522360000000    -0.602475   
O52      O      0.296190000000     0.339190000000     0.728160000000    -0.366173   
O53      O      0.240190000000     0.178070000000     0.746270000000    -0.361644   
O54      O      0.337490000000     0.224880000000     0.722130000000    -0.375311   
O55      O      0.195590000000     0.286040000000     0.716120000000    -0.374316   
O56      O      0.300780000000     0.183820000000     0.739390000000    -0.363697   
O57      O      0.232950000000     0.329900000000     0.720030000000    -0.366081   
O58      O      0.198030000000     0.214020000000     0.730050000000    -0.377788   
O59      O      0.338250000000     0.300360000000     0.720140000000    -0.374137   
O60      O      0.228230000000     0.330720000000     0.789170000000    -0.371232   
O61      O      0.307640000000     0.202660000000     0.806670000000    -0.371141   
O62      O      0.339980000000     0.295510000000     0.788360000000    -0.366192   
O63      O      0.196560000000     0.238040000000     0.798170000000    -0.370822   
O64      O      0.242060000000     0.205850000000     0.813280000000    -0.379545   
O65      O      0.292760000000     0.327830000000     0.796550000000    -0.378485   
O66      O      0.187250000000     0.290550000000     0.782510000000    -0.357989   
O67      O      0.348340000000     0.239450000000     0.788730000000    -0.36052    
O68      O      0.267610000000     0.258860000000     0.745290000000    -0.599275   
O69      O      0.444200000000     0.986060000000     0.031030000000    -0.366005   
O70      O      0.098270000000     0.535790000000     0.043910000000    -0.364865   
O71      O      0.059840000000     0.934700000000     0.025180000000    -0.376452   
O72      O      0.483500000000     0.582770000000     0.053050000000    -0.375734   
O73      O      0.101380000000     0.974700000000     0.021310000000    -0.364341   
O74      O      0.442810000000     0.547030000000     0.033250000000    -0.363395   
O75      O      0.058650000000     0.574200000000     0.060940000000    -0.374029   
O76      O      0.483920000000     0.945200000000     0.040300000000    -0.379257   
O77      O      0.463560000000     0.555210000000     0.467170000000    -0.37907    
O78      O      0.081300000000     0.991410000000     0.458730000000    -0.375169   
O79      O      0.487900000000     0.943080000000     0.471000000000    -0.359881   
O80      O      0.056880000000     0.596700000000     0.498000000000    -0.365756   
O81      O      0.091640000000     0.555300000000     0.477910000000    -0.374      
O82      O      0.456950000000     0.990790000000     0.461540000000    -0.3748     
O83      O      0.498790000000     0.595770000000     0.487970000000    -0.365221   
O84      O      0.042410000000     0.948920000000     0.462810000000    -0.365449   
O85      O      0.521970000000     0.013450000000     0.022360000000    -0.602399   
O86      O      0.296190000000     0.839190000000     0.228160000000    -0.366232   
O87      O      0.240190000000     0.678070000000     0.246270000000    -0.36164    
O88      O      0.337490000000     0.724880000000     0.222130000000    -0.37532    
O89      O      0.195590000000     0.786040000000     0.216120000000    -0.374255   
O90      O      0.300780000000     0.683820000000     0.239390000000    -0.363696   
O91      O      0.232950000000     0.829900000000     0.220040000000    -0.366069   
O92      O      0.198030000000     0.714020000000     0.230050000000    -0.377796   
O93      O      0.338250000000     0.800360000000     0.220140000000    -0.374263   
O94      O      0.228230000000     0.830720000000     0.289170000000    -0.371283   
O95      O      0.307640000000     0.702660000000     0.306670000000    -0.371139   
O96      O      0.339980000000     0.795500000000     0.288360000000    -0.366117   
O97      O      0.196560000000     0.738040000000     0.298170000000    -0.370823   
O98      O      0.242060000000     0.705850000000     0.313280000000    -0.379545   
O99      O      0.292760000000     0.827830000000     0.296540000000    -0.378527   
O100     O      0.187250000000     0.790550000000     0.282510000000    -0.35799    
O101     O      0.348340000000     0.739450000000     0.288730000000    -0.360509   
O102     O      0.267610000000     0.758860000000     0.245290000000    -0.599249   
O103     O      0.444200000000     0.986060000000     0.531030000000    -0.365998   
O104     O      0.098270000000     0.535790000000     0.543910000000    -0.364868   
O105     O      0.059840000000     0.934700000000     0.525180000000    -0.376444   
O106     O      0.483500000000     0.582770000000     0.553050000000    -0.375731   
O107     O      0.101380000000     0.974700000000     0.521310000000    -0.364323   
O108     O      0.442810000000     0.547030000000     0.533250000000    -0.363389   
O109     O      0.058650000000     0.574200000000     0.560940000000    -0.374032   
O110     O      0.483920000000     0.945200000000     0.540300000000    -0.379256   
O111     O      0.463560000000     0.555210000000     0.967170000000    -0.378887   
O112     O      0.081300000000     0.991410000000     0.958730000000    -0.375005   
O113     O      0.487900000000     0.943080000000     0.970990000000    -0.359731   
O114     O      0.056880000000     0.596700000000     0.998000000000    -0.365512   
O115     O      0.091640000000     0.555300000000     0.977910000000    -0.373821   
O116     O      0.456950000000     0.990790000000     0.961540000000    -0.374669   
O117     O      0.498790000000     0.595770000000     0.987970000000    -0.364975   
O118     O      0.042410000000     0.948920000000     0.962810000000    -0.365279   
O119     O      0.521970000000     0.013450000000     0.522360000000    -0.602507   
O120     O      0.296190000000     0.839190000000     0.728160000000    -0.366225   
O121     O      0.240190000000     0.678070000000     0.746270000000    -0.361641   
O122     O      0.337490000000     0.724880000000     0.722130000000    -0.375317   
O123     O      0.195590000000     0.786040000000     0.716120000000    -0.374326   
O124     O      0.300780000000     0.683820000000     0.739390000000    -0.363696   
O125     O      0.232950000000     0.829900000000     0.720030000000    -0.36613    
O126     O      0.198030000000     0.714020000000     0.730050000000    -0.377792   
O127     O      0.338250000000     0.800360000000     0.720140000000    -0.37426    
O128     O      0.228230000000     0.830720000000     0.789170000000    -0.371282   
O129     O      0.307640000000     0.702660000000     0.806670000000    -0.371135   
O130     O      0.339980000000     0.795500000000     0.788360000000    -0.366129   
O131     O      0.196560000000     0.738040000000     0.798170000000    -0.370824   
O132     O      0.242060000000     0.705850000000     0.813280000000    -0.379541   
O133     O      0.292760000000     0.827830000000     0.796550000000    -0.378489   
O134     O      0.187250000000     0.790550000000     0.782510000000    -0.357997   
O135     O      0.348340000000     0.739450000000     0.788730000000    -0.360509   
O136     O      0.267610000000     0.758860000000     0.745290000000    -0.599235   
O137     O      0.944190000000     0.486060000000     0.031030000000    -0.366035   
O138     O      0.598270000000     0.035790000000     0.043910000000    -0.364871   
O139     O      0.559840000000     0.434700000000     0.025180000000    -0.37644    
O140     O      0.983500000000     0.082770000000     0.053050000000    -0.375586   
O141     O      0.601380000000     0.474700000000     0.021310000000    -0.364426   
O142     O      0.942810000000     0.047030000000     0.033250000000    -0.363446   
O143     O      0.558650000000     0.074200000000     0.060940000000    -0.373969   
O144     O      0.983920000000     0.445200000000     0.040300000000    -0.379131   
O145     O      0.963560000000     0.055210000000     0.467170000000    -0.379127   
O146     O      0.581300000000     0.491410000000     0.458730000000    -0.375304   
O147     O      0.987890000000     0.443080000000     0.471000000000    -0.359793   
O148     O      0.556880000000     0.096700000000     0.498000000000    -0.365683   
O149     O      0.591640000000     0.055300000000     0.477910000000    -0.373999   
O150     O      0.956950000000     0.490800000000     0.461540000000    -0.374841   
O151     O      0.998790000000     0.095770000000     0.487970000000    -0.365083   
O152     O      0.542410000000     0.448910000000     0.462810000000    -0.36525    
O153     O      0.021970000000     0.513450000000     0.022360000000    -0.602403   
O154     O      0.796190000000     0.339190000000     0.228160000000    -0.366201   
O155     O      0.740190000000     0.178070000000     0.246270000000    -0.361653   
O156     O      0.837490000000     0.224880000000     0.222130000000    -0.37536    
O157     O      0.695590000000     0.286040000000     0.216120000000    -0.374277   
O158     O      0.800790000000     0.183820000000     0.239390000000    -0.363781   
O159     O      0.732950000000     0.329900000000     0.220040000000    -0.365929   
O160     O      0.698030000000     0.214020000000     0.230050000000    -0.377796   
O161     O      0.838240000000     0.300360000000     0.220140000000    -0.374241   
O162     O      0.728230000000     0.330720000000     0.289170000000    -0.371246   
O163     O      0.807640000000     0.202660000000     0.306670000000    -0.37114    
O164     O      0.839980000000     0.295510000000     0.288360000000    -0.366277   
O165     O      0.696570000000     0.238040000000     0.298170000000    -0.370946   
O166     O      0.742060000000     0.205850000000     0.313280000000    -0.379577   
O167     O      0.792770000000     0.327830000000     0.296540000000    -0.378527   
O168     O      0.687250000000     0.290550000000     0.282510000000    -0.357986   
O169     O      0.848340000000     0.239450000000     0.288730000000    -0.360519   
O170     O      0.767610000000     0.258860000000     0.245290000000    -0.599293   
O171     O      0.944190000000     0.486060000000     0.531030000000    -0.366028   
O172     O      0.598270000000     0.035790000000     0.543910000000    -0.364875   
O173     O      0.559840000000     0.434700000000     0.525180000000    -0.376433   
O174     O      0.983500000000     0.082770000000     0.553050000000    -0.375583   
O175     O      0.601380000000     0.474700000000     0.521310000000    -0.364408   
O176     O      0.942810000000     0.047030000000     0.533250000000    -0.363439   
O177     O      0.558650000000     0.074200000000     0.560940000000    -0.373972   
O178     O      0.983920000000     0.445200000000     0.540300000000    -0.379131   
O179     O      0.963560000000     0.055210000000     0.967170000000    -0.378944   
O180     O      0.581300000000     0.491410000000     0.958730000000    -0.37514    
O181     O      0.987890000000     0.443080000000     0.970990000000    -0.359644   
O182     O      0.556880000000     0.096700000000     0.998000000000    -0.365439   
O183     O      0.591640000000     0.055300000000     0.977910000000    -0.37382    
O184     O      0.956950000000     0.490800000000     0.961540000000    -0.37471    
O185     O      0.998790000000     0.095770000000     0.987970000000    -0.364838   
O186     O      0.542410000000     0.448910000000     0.962810000000    -0.36508    
O187     O      0.021970000000     0.513450000000     0.522360000000    -0.602511   
O188     O      0.796190000000     0.339190000000     0.728160000000    -0.366195   
O189     O      0.740190000000     0.178070000000     0.746270000000    -0.361654   
O190     O      0.837490000000     0.224880000000     0.722130000000    -0.375357   
O191     O      0.695590000000     0.286040000000     0.716120000000    -0.374347   
O192     O      0.800790000000     0.183820000000     0.739390000000    -0.363781   
O193     O      0.732950000000     0.329900000000     0.720030000000    -0.36599    
O194     O      0.698030000000     0.214020000000     0.730050000000    -0.377792   
O195     O      0.838240000000     0.300360000000     0.720140000000    -0.374238   
O196     O      0.728230000000     0.330720000000     0.789170000000    -0.371245   
O197     O      0.807640000000     0.202660000000     0.806670000000    -0.371136   
O198     O      0.839980000000     0.295510000000     0.788360000000    -0.366289   
O199     O      0.696570000000     0.238040000000     0.798170000000    -0.370947   
O200     O      0.742060000000     0.205850000000     0.813280000000    -0.379572   
O201     O      0.792770000000     0.327830000000     0.796550000000    -0.37849    
O202     O      0.687250000000     0.290550000000     0.782510000000    -0.357993   
O203     O      0.848340000000     0.239450000000     0.788730000000    -0.360519   
O204     O      0.767610000000     0.258860000000     0.745290000000    -0.599279   
O205     O      0.944190000000     0.986060000000     0.031030000000    -0.365902   
O206     O      0.598270000000     0.535790000000     0.043910000000    -0.364861   
O207     O      0.559840000000     0.934700000000     0.025180000000    -0.376456   
O208     O      0.983500000000     0.582770000000     0.053050000000    -0.375577   
O209     O      0.601380000000     0.974700000000     0.021310000000    -0.36435    
O210     O      0.942810000000     0.547030000000     0.033250000000    -0.363388   
O211     O      0.558650000000     0.574200000000     0.060940000000    -0.37397    
O212     O      0.983920000000     0.945200000000     0.040300000000    -0.379129   
O213     O      0.963560000000     0.555210000000     0.467170000000    -0.379052   
O214     O      0.581300000000     0.991410000000     0.458730000000    -0.375166   
O215     O      0.987890000000     0.943080000000     0.471000000000    -0.359844   
O216     O      0.556880000000     0.596700000000     0.498000000000    -0.365689   
O217     O      0.591640000000     0.555300000000     0.477910000000    -0.373989   
O218     O      0.956950000000     0.990790000000     0.461540000000    -0.374829   
O219     O      0.998790000000     0.595770000000     0.487970000000    -0.365078   
O220     O      0.542410000000     0.948920000000     0.462810000000    -0.365414   
O221     O      0.021970000000     0.013450000000     0.022360000000    -0.602435   
O222     O      0.796190000000     0.839190000000     0.228160000000    -0.366254   
O223     O      0.740190000000     0.678070000000     0.246270000000    -0.36165    
O224     O      0.837490000000     0.724880000000     0.222130000000    -0.375366   
O225     O      0.695590000000     0.786040000000     0.216120000000    -0.374287   
O226     O      0.800790000000     0.683820000000     0.239390000000    -0.363779   
O227     O      0.732950000000     0.829900000000     0.220040000000    -0.365977   
O228     O      0.698030000000     0.714020000000     0.230050000000    -0.3778     
O229     O      0.838240000000     0.800360000000     0.220140000000    -0.374363   
O230     O      0.728230000000     0.830720000000     0.289170000000    -0.371296   
O231     O      0.807640000000     0.702660000000     0.306670000000    -0.371134   
O232     O      0.839980000000     0.795500000000     0.288360000000    -0.366213   
O233     O      0.696570000000     0.738040000000     0.298170000000    -0.370947   
O234     O      0.742060000000     0.705850000000     0.313280000000    -0.379572   
O235     O      0.792770000000     0.827830000000     0.296540000000    -0.378532   
O236     O      0.687250000000     0.790550000000     0.282510000000    -0.357993   
O237     O      0.848340000000     0.739450000000     0.288730000000    -0.360508   
O238     O      0.767610000000     0.758860000000     0.245290000000    -0.599252   
O239     O      0.944190000000     0.986060000000     0.531030000000    -0.365895   
O240     O      0.598270000000     0.535790000000     0.543910000000    -0.364864   
O241     O      0.559840000000     0.934700000000     0.525180000000    -0.376449   
O242     O      0.983500000000     0.582770000000     0.553050000000    -0.375575   
O243     O      0.601380000000     0.974700000000     0.521310000000    -0.364331   
O244     O      0.942810000000     0.547030000000     0.533250000000    -0.363381   
O245     O      0.558650000000     0.574200000000     0.560940000000    -0.373973   
O246     O      0.983920000000     0.945200000000     0.540300000000    -0.379128   
O247     O      0.963560000000     0.555210000000     0.967170000000    -0.378869   
O248     O      0.581300000000     0.991410000000     0.958730000000    -0.375001   
O249     O      0.987890000000     0.943080000000     0.970990000000    -0.359694   
O250     O      0.556880000000     0.596700000000     0.998000000000    -0.365445   
O251     O      0.591640000000     0.555300000000     0.977910000000    -0.37381    
O252     O      0.956950000000     0.990790000000     0.961540000000    -0.374698   
O253     O      0.998790000000     0.595770000000     0.987970000000    -0.364833   
O254     O      0.542410000000     0.948920000000     0.962810000000    -0.365243   
O255     O      0.021970000000     0.013450000000     0.522360000000    -0.602543   
O256     O      0.796190000000     0.839190000000     0.728160000000    -0.366248   
O257     O      0.740190000000     0.678070000000     0.746270000000    -0.361651   
O258     O      0.837490000000     0.724880000000     0.722130000000    -0.375363   
O259     O      0.695590000000     0.786040000000     0.716120000000    -0.374357   
O260     O      0.800790000000     0.683820000000     0.739390000000    -0.363779   
O261     O      0.732950000000     0.829900000000     0.720030000000    -0.366039   
O262     O      0.698030000000     0.714020000000     0.730050000000    -0.377796   
O263     O      0.838240000000     0.800360000000     0.720140000000    -0.37436    
O264     O      0.728230000000     0.830720000000     0.789170000000    -0.371295   
O265     O      0.807640000000     0.702660000000     0.806670000000    -0.37113    
O266     O      0.839980000000     0.795500000000     0.788360000000    -0.366225   
O267     O      0.696570000000     0.738040000000     0.798170000000    -0.370948   
O268     O      0.742060000000     0.705850000000     0.813280000000    -0.379567   
O269     O      0.792770000000     0.827830000000     0.796550000000    -0.378494   
O270     O      0.687250000000     0.790550000000     0.782510000000    -0.358001   
O271     O      0.848340000000     0.739450000000     0.788730000000    -0.360508   
O272     O      0.767610000000     0.758860000000     0.745290000000    -0.599239   


