data_structure

_audit_creation_method RASPA-1.0
_audit_creation_date 2023-6-4
_audit_author_name 'Poobodin Mano'

_cell_length_a    27.2935
_cell_length_b    28.3344
_cell_length_c    29.1874
_cell_angle_alpha 87.1346
_cell_angle_beta  93.8197
_cell_angle_gamma 120.434
_cell_volume      19415.1

_symmetry_cell_setting          triclinic
_symmetry_space_group_name_Hall 'P 1'
_symmetry_space_group_name_H-M  'P 1'
_symmetry_Int_Tables_number     1

_symmetry_equiv_pos_as_xyz 'x,y,z'

loop_
_atom_site_label
_atom_site_type_symbol
_atom_site_fract_x
_atom_site_fract_y
_atom_site_fract_z
_atom_site_charge
C1       C      0.275120000000     0.242710000000     0.092210000000     0.541578   
C2       C      0.142580000000     0.990590000000     0.008530000000     0.461543   
C3       C      0.207150000000     0.133830000000     0.960890000000     0.500892   
C4       C      0.134290000000     0.106700000000     0.124250000000     0.465719   
C5       C      0.209940000000     0.042330000000     0.176990000000     0.485613   
C6       C      0.323440000000     0.104940000000     0.967760000000     0.419712   
C7       C      0.374570000000     0.193380000000     0.104890000000     0.520142   
C8       C      0.258300000000     0.013640000000     0.087610000000     0.466467   
C9       C      0.130920000000     0.099020000000     0.450710000000     0.462165   
C10      C      0.125920000000     0.246630000000     0.535370000000     0.488932   
C11      C      0.984200000000     0.068200000000     0.504490000000     0.486507   
C12      C      0.252290000000     0.166000000000     0.522350000000     0.448401   
C13      C      0.196080000000     0.114450000000     0.631920000000     0.446251   
C14      C      0.025150000000     0.021750000000     0.606890000000     0.491976   
C15      C      0.104990000000     0.978760000000     0.513610000000     0.382384   
C16      C      0.131930000000     0.196530000000     0.649640000000     0.518191   
C17      C      0.075910000000     0.541880000000     0.115020000000     0.446975   
C18      C      0.148190000000     0.694860000000     0.080400000000     0.492702   
C19      C      0.048560000000     0.602390000000     0.204700000000     0.514443   
C20      C      0.262280000000     0.645440000000     0.045520000000     0.385166   
C21      C      0.304440000000     0.655960000000     0.163190000000     0.451902   
C22      C      0.183960000000     0.655450000000     0.273490000000     0.481478   
C23      C      0.177460000000     0.516410000000     0.168660000000     0.453961   
C24      C      0.262140000000     0.777180000000     0.156740000000     0.481149   
C25      C      0.012880000000     0.447080000000     0.640590000000     0.487363   
C26      C      0.030220000000     0.671120000000     0.662670000000     0.474193   
C27      C      0.953490000000     0.518790000000     0.719190000000     0.492841   
C28      C      0.095670000000     0.578590000000     0.559900000000     0.471321   
C29      C      0.207070000000     0.642780000000     0.649660000000     0.472898   
C30      C      0.076710000000     0.594580000000     0.799930000000     0.395374   
C31      C      0.150590000000     0.498610000000     0.690920000000     0.402207   
C32      C      0.168370000000     0.699510000000     0.710730000000     0.479162   
C33      C      0.578220000000     0.053150000000     0.082730000000     0.465466   
C34      C      0.740770000000     0.046960000000     0.067420000000     0.487417   
C35      C      0.689290000000     0.115550000000     0.966470000000     0.401033   
C36      C      0.625220000000     0.054380000000     0.188100000000     0.485834   
C37      C      0.746250000000     0.185940000000     0.201440000000     0.453914   
C38      C      0.760500000000     0.243030000000     0.021810000000     0.505233   
C39      C      0.625270000000     0.191910000000     0.067050000000     0.457822   
C40      C      0.841220000000     0.168150000000     0.136890000000     0.499157   
C41      C      0.442930000000     0.058520000000     0.542540000000     0.472505   
C42      C      0.509520000000     0.917300000000     0.525760000000     0.478303   
C43      C      0.550980000000     0.077920000000     0.442480000000     0.539667   
C44      C      0.490220000000     0.938640000000     0.640930000000     0.449252   
C45      C      0.612290000000     0.073110000000     0.660010000000     0.461784   
C46      C      0.680590000000     0.134640000000     0.513940000000     0.518707   
C47      C      0.561700000000     0.147370000000     0.620520000000     0.483624   
C48      C      0.647300000000     0.968670000000     0.578350000000     0.430048   
C49      C      0.596910000000     0.527750000000     0.113550000000     0.420144   
C50      C      0.814610000000     0.791150000000     0.106800000000     0.493501   
C51      C      0.656900000000     0.665480000000     0.162530000000     0.493598   
C52      C      0.736160000000     0.701830000000     0.019210000000     0.456699   
C53      C      0.801910000000     0.615570000000     0.024530000000     0.469413   
C54      C      0.743670000000     0.618130000000     0.228630000000     0.49609    
C55      C      0.727330000000     0.527510000000     0.110360000000     0.473605   
C56      C      0.893230000000     0.729690000000     0.160810000000     0.48642    
C57      C      0.470450000000     0.484720000000     0.579590000000     0.469776   
C58      C      0.645370000000     0.716700000000     0.552990000000     0.465508   
C59      C      0.468400000000     0.576060000000     0.625430000000     0.471821   
C60      C      0.648930000000     0.626430000000     0.506260000000     0.473189   
C61      C      0.692110000000     0.557170000000     0.595600000000     0.473234   
C62      C      0.582140000000     0.624440000000     0.717480000000     0.468185   
C63      C      0.580920000000     0.470330000000     0.638730000000     0.474183   
C64      C      0.690800000000     0.710780000000     0.670640000000     0.461345   
C65      C      0.617800000000     0.645720000000     0.922950000000    -0.041175   
C66      C      0.673140000000     0.728260000000     0.973300000000    -0.0178663  
C67      C      0.631990000000     0.651750000000     0.840970000000     0.0146854  
C68      C      0.656750000000     0.701950000000     0.926990000000     0.0212471  
C69      C      0.621950000000     0.624260000000     0.795580000000    -0.0168959  
C70      C      0.683170000000     0.732940000000     0.887710000000    -0.0432714  
C71      C      0.670970000000     0.708020000000     0.845050000000    -0.0409475  
C72      C      0.605260000000     0.620860000000     0.880230000000    -0.0407298  
C73      C      0.633400000000     0.622360000000     0.342380000000    -0.0426385  
C74      C      0.621290000000     0.635520000000     0.424870000000    -0.0170875  
C75      C      0.670060000000     0.564040000000     0.322720000000     0.0215921  
C76      C      0.635510000000     0.608500000000     0.389020000000     0.0135224  
C77      C      0.695420000000     0.545980000000     0.288170000000    -0.0179509  
C78      C      0.651040000000     0.569150000000     0.401780000000    -0.0361692  
C79      C      0.668930000000     0.547680000000     0.368980000000    -0.0483653  
C80      C      0.650290000000     0.600100000000     0.309440000000    -0.0428099  
C81      C      0.516940000000     0.742860000000     0.488430000000    -0.0410166  
C82      C      0.614860000000     0.755230000000     0.486520000000    -0.0142486  
C83      C      0.496620000000     0.797340000000     0.537150000000     0.020884   
C84      C      0.572680000000     0.766290000000     0.507860000000     0.0230986  
C85      C      0.458460000000     0.818900000000     0.548420000000    -0.0181093  
C86      C      0.589560000000     0.804490000000     0.542970000000    -0.0397319  
C87      C      0.551570000000     0.819360000000     0.557850000000    -0.0454345  
C88      C      0.479280000000     0.758180000000     0.502940000000    -0.0429245  
C89      C      0.520930000000     0.308630000000     0.682260000000    -0.0411854  
C90      C      0.587890000000     0.408640000000     0.699130000000    -0.0155156  
C91      C      0.550610000000     0.241180000000     0.695120000000     0.015733   
C92      C      0.573250000000     0.349470000000     0.701470000000     0.011553   
C93      C      0.541170000000     0.184820000000     0.687470000000    -0.0170914  
C94      C      0.612800000000     0.334980000000     0.719850000000    -0.0439876  
C95      C      0.601570000000     0.281260000000     0.716690000000    -0.0432403  
C96      C      0.509930000000     0.255080000000     0.678750000000    -0.0444834  
C97      C      0.736730000000     0.168590000000     0.781820000000    -0.0442251  
C98      C      0.704920000000     0.123970000000     0.704250000000    -0.0163122  
C99      C      0.737650000000     0.116910000000     0.850650000000     0.0137079  
C100     C      0.720150000000     0.122810000000     0.754740000000     0.0162466  
C101     C      0.742940000000     0.112790000000     0.902290000000    -0.0176244  
C102     C      0.712500000000     0.074100000000     0.775990000000    -0.0413871  
C103     C      0.721300000000     0.071200000000     0.823550000000    -0.0423818  
C104     C      0.745630000000     0.165720000000     0.829380000000    -0.040279   
C105     C      0.640400000000     0.067060000000     0.335730000000    -0.0434204  
C106     C      0.548260000000     0.057450000000     0.360090000000    -0.0131292  
C107     C      0.716280000000     0.153190000000     0.305340000000     0.0210925  
C108     C      0.608310000000     0.091750000000     0.343850000000     0.0169625  
C109     C      0.773680000000     0.185980000000     0.284020000000    -0.0162194  
C110     C      0.630910000000     0.147570000000     0.332620000000    -0.0401027  
C111     C      0.684580000000     0.178100000000     0.314080000000    -0.0405045  
C112     C      0.693780000000     0.097430000000     0.316650000000    -0.0399173  
C113     C      0.847010000000     0.000550000000     0.045320000000    -0.0414861  
C114     C      0.769900000000     0.012340000000     0.004020000000    -0.0160733  
C115     C      0.849100000000     0.916380000000     0.039720000000     0.0125587  
C116     C      0.800660000000     0.981180000000     0.013180000000     0.0173733  
C117     C      0.866330000000     0.877000000000     0.060560000000    -0.0141358  
C118     C      0.780080000000     0.930120000000     0.993150000000    -0.0452482  
C119     C      0.804300000000     0.898090000000     0.006200000000    -0.0396823  
C120     C      0.871080000000     0.968340000000     0.058550000000    -0.0415941  
C121     C      0.643590000000     0.378150000000     0.115600000000    -0.0406717  
C122     C      0.734840000000     0.453460000000     0.153180000000    -0.0169507  
C123     C      0.617690000000     0.282750000000     0.123440000000     0.0164723  
C124     C      0.693440000000     0.393790000000     0.143430000000     0.0154514  
C125     C      0.576100000000     0.223400000000     0.114040000000    -0.00838805 
C126     C      0.703830000000     0.353060000000     0.162510000000    -0.0442189  
C127     C      0.666060000000     0.297970000000     0.152840000000    -0.0326679  
C128     C      0.606670000000     0.323250000000     0.105040000000    -0.0408996  
C129     C      0.813410000000     0.307880000000     0.549040000000    -0.0429064  
C130     C      0.752090000000     0.230380000000     0.495180000000    -0.0143671  
C131     C      0.916460000000     0.352060000000     0.551450000000     0.0137961  
C132     C      0.809070000000     0.270290000000     0.517110000000     0.0167423  
C133     C      0.973750000000     0.398030000000     0.567650000000    -0.0156977  
C134     C      0.858830000000     0.273180000000     0.503260000000    -0.0422537  
C135     C      0.912160000000     0.313660000000     0.520420000000    -0.0444236  
C136     C      0.866670000000     0.348670000000     0.565800000000    -0.0396906  
C137     C      0.393500000000     0.862490000000     0.753230000000    -0.040016   
C138     C      0.472840000000     0.873400000000     0.706550000000    -0.0172518  
C139     C      0.310090000000     0.772950000000     0.764570000000     0.0174491  
C140     C      0.421120000000     0.838240000000     0.734000000000     0.0128905  
C141     C      0.247030000000     0.739160000000     0.771050000000    -0.0174142  
C142     C      0.394370000000     0.780930000000     0.733300000000    -0.042816   
C143     C      0.339540000000     0.748530000000     0.749150000000    -0.0414005  
C144     C      0.338270000000     0.830090000000     0.768180000000    -0.044322   
C145     C      0.805190000000     0.481460000000     0.590660000000    -0.0410241  
C146     C      0.716150000000     0.487050000000     0.575800000000    -0.0132182  
C147     C      0.817920000000     0.439310000000     0.661580000000     0.0149359  
C148     C      0.748210000000     0.461900000000     0.600090000000     0.0119891  
C149     C      0.858310000000     0.439170000000     0.699340000000    -0.0169117  
C150     C      0.725320000000     0.427520000000     0.638620000000    -0.0411588  
C151     C      0.759940000000     0.416360000000     0.669210000000    -0.0438467  
C152     C      0.839660000000     0.469730000000     0.620940000000    -0.0415318  
C153     C      0.384520000000     0.689400000000     0.611910000000    -0.0476831  
C154     C      0.301610000000     0.704400000000     0.617570000000    -0.0172793  
C155     C      0.370240000000     0.606330000000     0.578230000000     0.0169735  
C156     C      0.328590000000     0.675370000000     0.598130000000     0.0165754  
C157     C      0.390360000000     0.566770000000     0.570940000000    -0.0177644  
C158     C      0.294660000000     0.628040000000     0.572410000000    -0.0409319  
C159     C      0.315450000000     0.593990000000     0.562290000000    -0.044714   
C160     C      0.405430000000     0.655440000000     0.601570000000    -0.034991   
C161     C      0.191530000000     0.708010000000     0.929890000000    -0.0414175  
C162     C      0.119640000000     0.656930000000     0.865720000000    -0.0191948  
C163     C      0.275430000000     0.699660000000     0.944920000000     0.0235658  
C164     C      0.176290000000     0.675150000000     0.891160000000     0.0160055  
C165     C      0.318290000000     0.698700000000     0.979430000000    -0.0223636  
C166     C      0.214580000000     0.660060000000     0.876720000000    -0.0399657  
C167     C      0.263420000000     0.671760000000     0.903630000000    -0.0442624  
C168     C      0.240360000000     0.719590000000     0.957030000000    -0.0399709  
C169     C      0.131580000000     0.538610000000     0.413590000000    -0.0450603  
C170     C      0.109570000000     0.530770000000     0.497300000000    -0.0161904  
C171     C      0.209570000000     0.622080000000     0.382320000000     0.0196803  
C172     C      0.145070000000     0.561740000000     0.457320000000     0.0146974  
C173     C      0.242940000000     0.654770000000     0.341980000000    -0.0169695  
C174     C      0.191550000000     0.614920000000     0.463380000000    -0.0393339  
C175     C      0.223440000000     0.644950000000     0.426140000000    -0.0458598  
C176     C      0.163670000000     0.568590000000     0.376340000000    -0.039993   
C177     C      0.970090000000     0.422210000000     0.025550000000    -0.0392666  
C178     C      0.010690000000     0.520750000000     0.046070000000    -0.0187984  
C179     C      0.873140000000     0.367500000000     0.994460000000     0.0244067  
C180     C      0.962810000000     0.467660000000     0.027520000000     0.0183514  
C181     C      0.827750000000     0.316220000000     0.971770000000    -0.0118602  
C182     C      0.910180000000     0.462400000000     0.013510000000    -0.0441466  
C183     C      0.865630000000     0.412720000000     0.996980000000    -0.039343   
C184     C      0.925550000000     0.372450000000     0.009180000000    -0.0391806  
C185     C      0.470230000000     0.946120000000     0.207790000000    -0.0393559  
C186     C      0.568460000000     0.958220000000     0.216260000000    -0.0150548  
C187     C      0.400470000000     0.887410000000     0.149960000000     0.0195287  
C188     C      0.509970000000     0.933270000000     0.193000000000     0.020598   
C189     C      0.342160000000     0.864240000000     0.126840000000    -0.016728   
C190     C      0.493980000000     0.896190000000     0.157140000000    -0.0400481  
C191     C      0.439500000000     0.873270000000     0.135850000000    -0.0417862  
C192     C      0.416430000000     0.924180000000     0.185960000000    -0.0434445  
C193     C      0.876450000000     0.546760000000     0.083510000000    -0.0346262  
C194     C      0.873100000000     0.588900000000     0.004900000000    -0.0155242  
C195     C      0.942590000000     0.602480000000     0.145080000000     0.026968   
C196     C      0.896760000000     0.592890000000     0.053960000000     0.0272164  
C197     C      0.961610000000     0.610270000000     0.195370000000    -0.011097   
C198     C      0.940650000000     0.643420000000     0.070230000000    -0.0308973  
C199     C      0.963740000000     0.647940000000     0.115040000000    -0.0314903  
C200     C      0.899050000000     0.551550000000     0.128810000000    -0.0358799  
C201     C      0.517080000000     0.673910000000     0.235210000000    -0.04145    
C202     C      0.614420000000     0.709670000000     0.203660000000    -0.0132953  
C203     C      0.453570000000     0.706210000000     0.205020000000     0.0164266  
C204     C      0.558270000000     0.708370000000     0.204140000000     0.0116369  
C205     C      0.397940000000     0.705790000000     0.206280000000    -0.0186384  
C206     C      0.546090000000     0.740770000000     0.172790000000    -0.0411914  
C207     C      0.494280000000     0.739800000000     0.173280000000    -0.042433   
C208     C      0.465340000000     0.673040000000     0.235790000000    -0.0443786  
C209     C      0.867370000000     0.917510000000     0.643600000000    -0.0407418  
C210     C      0.965790000000     0.986640000000     0.675100000000    -0.0160242  
C211     C      0.795960000000     0.849520000000     0.693680000000     0.0149024  
C212     C      0.908260000000     0.935720000000     0.680350000000     0.0166697  
C213     C      0.735410000000     0.804940000000     0.701580000000    -0.017296   
C214     C      0.892720000000     0.909640000000     0.723560000000    -0.0448821  
C215     C      0.837170000000     0.866920000000     0.730120000000    -0.0421107  
C216     C      0.811770000000     0.874510000000     0.650140000000    -0.041321   
C217     C      0.299370000000     0.300190000000     0.467480000000    -0.0390142  
C218     C      0.313280000000     0.219540000000     0.458030000000    -0.0134344  
C219     C      0.373600000000     0.384300000000     0.502540000000     0.0119857  
C220     C      0.333710000000     0.276430000000     0.474650000000     0.0216431  
C221     C      0.395380000000     0.442320000000     0.516930000000    -0.0171477  
C222     C      0.387900000000     0.306760000000     0.496320000000    -0.0468086  
C223     C      0.407920000000     0.360460000000     0.509760000000    -0.0398421  
C224     C      0.319050000000     0.353590000000     0.481460000000    -0.0434933  
C225     C      0.789120000000     0.952100000000     0.551410000000    -0.0449666  
C226     C      0.720890000000     0.946630000000     0.607100000000    -0.0194081  
C227     C      0.857860000000     0.039930000000     0.518610000000     0.0159039  
C228     C      0.776370000000     0.978570000000     0.583960000000     0.0170687  
C229     C      0.898060000000     0.072130000000     0.481200000000    -0.016442   
C230     C      0.806490000000     0.036060000000     0.584910000000    -0.0404146  
C231     C      0.847390000000     0.066550000000     0.552700000000    -0.0437047  
C232     C      0.828970000000     0.982410000000     0.518800000000    -0.0385828  
C233     C      0.321770000000     0.067800000000     0.590550000000    -0.0319258  
C234     C      0.385070000000     0.102220000000     0.522290000000    -0.0159561  
C235     C      0.315430000000     0.130480000000     0.640510000000     0.0245862  
C236     C      0.363990000000     0.111940000000     0.565670000000     0.0196342  
C237     C      0.284750000000     0.139620000000     0.677440000000    -0.016857   
C238     C      0.382190000000     0.165570000000     0.579160000000    -0.0413966  
C239     C      0.357850000000     0.174760000000     0.616020000000    -0.0399934  
C240     C      0.298790000000     0.076970000000     0.628080000000    -0.0333601  
C241     C      0.043660000000     0.755270000000     0.553420000000    -0.0415846  
C242     C      0.974220000000     0.704290000000     0.615630000000    -0.0151719  
C243     C      0.094660000000     0.854730000000     0.548050000000     0.0208989  
C244     C      0.017020000000     0.756590000000     0.592480000000     0.0203963  
C245     C      0.132630000000     0.907220000000     0.522530000000    -0.0230377  
C246     C      0.030730000000     0.807370000000     0.609920000000    -0.0401562  
C247     C      0.069230000000     0.856060000000     0.587870000000    -0.0404715  
C248     C      0.081960000000     0.803970000000     0.531220000000    -0.0456854  
C249     C      0.121350000000     0.336150000000     0.615600000000    -0.0365303  
C250     C      0.087650000000     0.309770000000     0.533050000000    -0.0152468  
C251     C      0.184400000000     0.431260000000     0.636490000000     0.0304787  
C252     C      0.118050000000     0.352160000000     0.569660000000     0.0155867  
C253     C      0.221950000000     0.473740000000     0.671710000000    -0.0161097  
C254     C      0.147960000000     0.408000000000     0.557490000000    -0.041577   
C255     C      0.180700000000     0.447150000000     0.590590000000    -0.0340039  
C256     C      0.154100000000     0.375440000000     0.648800000000    -0.0431204  
C257     C      0.106240000000     0.199450000000     0.855230000000    -0.0432256  
C258     C      0.166910000000     0.183480000000     0.915860000000    -0.0156738  
C259     C      0.113600000000     0.190530000000     0.773910000000     0.014183   
C260     C      0.147090000000     0.184050000000     0.866440000000     0.0148875  
C261     C      0.092010000000     0.189910000000     0.724920000000    -0.015949   
C262     C      0.171980000000     0.173020000000     0.830900000000    -0.041345   
C263     C      0.154740000000     0.175400000000     0.785060000000    -0.0403922  
C264     C      0.089490000000     0.202440000000     0.809410000000    -0.0437559  
C265     C      0.156330000000     0.106660000000     0.298350000000    -0.0503244  
C266     C      0.109590000000     0.111060000000     0.368210000000    -0.018404   
C267     C      0.138910000000     0.019350000000     0.270910000000     0.013569   
C268     C      0.114430000000     0.079400000000     0.330580000000     0.0188993  
C269     C      0.153080000000     0.985510000000     0.241640000000    -0.0130374  
C270     C      0.083830000000     0.021950000000     0.332050000000    -0.041621   
C271     C      0.095680000000     0.992250000000     0.302240000000    -0.0425689  
C272     C      0.168320000000     0.077070000000     0.268650000000    -0.0306     
C273     C      0.010650000000     0.842520000000     0.051070000000    -0.046252   
C274     C      0.039240000000     0.925800000000     0.000180000000    -0.0203532  
C275     C      0.997330000000     0.842880000000     0.132840000000     0.016402   
C276     C      0.023630000000     0.897030000000     0.046280000000     0.0167349  
C277     C      0.982720000000     0.814310000000     0.179610000000    -0.0162507  
C278     C      0.025020000000     0.924900000000     0.085270000000    -0.048793   
C279     C      0.011790000000     0.897990000000     0.128130000000    -0.043541   
C280     C      0.997660000000     0.815720000000     0.093740000000    -0.0378464  
C281     C      0.439380000000     0.368750000000     0.145720000000    -0.047894   
C282     C      0.508660000000     0.469500000000     0.154650000000    -0.0183294  
C283     C      0.466740000000     0.300180000000     0.163820000000     0.0128078  
C284     C      0.494610000000     0.410740000000     0.157560000000     0.0238945  
C285     C      0.452260000000     0.241050000000     0.163830000000    -0.0159037  
C286     C      0.535880000000     0.397090000000     0.172950000000    -0.0442905  
C287     C      0.522060000000     0.342250000000     0.175990000000    -0.0425921  
C288     C      0.425320000000     0.314080000000     0.149690000000    -0.0372476  
C289     C      0.944440000000     0.108610000000     0.188460000000    -0.0422717  
C290     C      0.901810000000     0.166890000000     0.204080000000    -0.0134864  
C291     C      0.046950000000     0.147630000000     0.187460000000     0.0133371  
C292     C      0.952230000000     0.159910000000     0.198740000000     0.0167021  
C293     C      0.097680000000     0.140880000000     0.181680000000    -0.01696    
C294     C      0.007650000000     0.205010000000     0.203280000000    -0.0426838  
C295     C      0.054620000000     0.198850000000     0.197980000000    -0.0440625  
C296     C      0.991420000000     0.102380000000     0.183450000000    -0.041173   
C297     C      0.475030000000     0.053170000000     0.007860000000    -0.029145   
C298     C      0.474770000000     0.013140000000     0.087670000000    -0.0145674  
C299     C      0.444940000000     0.120120000000     0.993410000000     0.0202954  
C300     C      0.466560000000     0.052040000000     0.055030000000     0.023039   
C301     C      0.426610000000     0.150940000000     0.959610000000    -0.0211398  
C302     C      0.446710000000     0.085020000000     0.070960000000    -0.0395355  
C303     C      0.435780000000     0.118560000000     0.040360000000    -0.0383858  
C304     C      0.464890000000     0.087290000000     0.977470000000    -0.0380933  
C305     C      0.154520000000     0.852470000000     0.129980000000    -0.0445585  
C306     C      0.249190000000     0.938850000000     0.140640000000    -0.0137309  
C307     C      0.133670000000     0.792450000000     0.065990000000     0.0233843  
C308     C      0.208110000000     0.889310000000     0.113190000000     0.0251149  
C309     C      0.095900000000     0.738400000000     0.042960000000    -0.0133012  
C310     C      0.224090000000     0.877400000000     0.072430000000    -0.0340379  
C311     C      0.186920000000     0.829580000000     0.048790000000    -0.0357545  
C312     C      0.117660000000     0.804440000000     0.106610000000    -0.0366443  
C313     C      0.181650000000     0.308710000000     0.138690000000    -0.0395386  
C314     C      0.271280000000     0.304270000000     0.146820000000    -0.0119475  
C315     C      0.183330000000     0.394820000000     0.142670000000     0.0191525  
C316     C      0.241040000000     0.336120000000     0.145220000000     0.0124457  
C317     C      0.152480000000     0.426270000000     0.139690000000    -0.0211849  
C318     C      0.271680000000     0.393260000000     0.149040000000    -0.0422368  
C319     C      0.243010000000     0.422470000000     0.147580000000    -0.0412386  
C320     C      0.152910000000     0.337790000000     0.137770000000    -0.0472208  
Co1      Co     0.259600000000     0.142170000000     0.137540000000     1.14311    
Co2      Co     0.252870000000     0.075900000000     0.017430000000     1.08418    
Co3      Co     0.296510000000     0.182750000000     0.025780000000     1.04895    
Co4      Co     0.162260000000     0.038560000000     0.087450000000     1.05643    
Co5      Co     0.146940000000     0.077570000000     0.546360000000     0.733593   
Co6      Co     0.052440000000     0.135240000000     0.578480000000     1.17478    
Co7      Co     0.081000000000     0.058410000000     0.524000000000     0.804793   
Co8      Co     0.192440000000     0.200990000000     0.569170000000     1.14101    
Co9      Co     0.194840000000     0.606270000000     0.115080000000     0.766967   
Co10     Co     0.154640000000     0.693660000000     0.183690000000     1.15292    
Co11     Co     0.134530000000     0.571370000000     0.209140000000     1.14129    
Co12     Co     0.232770000000     0.675600000000     0.119320000000     0.792842   
Co13     Co     0.107010000000     0.544450000000     0.651650000000     1.14129    
Co14     Co     0.064200000000     0.607970000000     0.723470000000     1.18384    
Co15     Co     0.053050000000     0.509340000000     0.721390000000     0.77147    
Co16     Co     0.107150000000     0.650620000000     0.625020000000     1.08558    
Co17     Co     0.658410000000     0.153150000000     0.138590000000     1.07607    
Co18     Co     0.781370000000     0.163700000000     0.054340000000     1.01052    
Co19     Co     0.669310000000     0.127680000000     0.038670000000     1.11076    
Co20     Co     0.722220000000     0.086920000000     0.146030000000     1.09803    
Co21     Co     0.498770000000     0.031610000000     0.608610000000     1.05712    
Co22     Co     0.593680000000     0.019730000000     0.504300000000     1.04156    
Co23     Co     0.569010000000     0.122040000000     0.533750000000     1.14455    
Co24     Co     0.588900000000     0.002220000000     0.593830000000     1.03493    
Co25     Co     0.701940000000     0.601450000000     0.057450000000     0.871133   
Co26     Co     0.779500000000     0.711330000000     0.173550000000     1.11536    
Co27     Co     0.692440000000     0.592510000000     0.137560000000     1.08114    
Co28     Co     0.829370000000     0.699830000000     0.080630000000     1.11003    
Co29     Co     0.581770000000     0.538440000000     0.559380000000     1.09135    
Co30     Co     0.578200000000     0.658390000000     0.621850000000     1.0791     
Co31     Co     0.543420000000     0.537820000000     0.661490000000     1.07811    
Co32     Co     0.685920000000     0.649140000000     0.602250000000     1.07842    
H1       H      0.587630000000     0.675620000000     0.768390000000     0.102351   
H2       H      0.675940000000     0.768820000000     0.970340000000     0.0327025  
H3       H      0.640210000000     0.703640000000     0.998520000000     0.0507729  
H4       H      0.575490000000     0.577290000000     0.878020000000     0.039424   
H5       H      0.597600000000     0.620920000000     0.952930000000     0.0472049  
H6       H      0.663840000000     0.633720000000     0.783470000000     0.0505982  
H7       H      0.713950000000     0.776250000000     0.890270000000     0.0369913  
H8       H      0.692530000000     0.732420000000     0.815290000000     0.0395484  
H9       H      0.594900000000     0.579030000000     0.799530000000     0.0432084  
H10      H      0.764620000000     0.768490000000     0.974490000000     0.0980107  
H11      H      0.782350000000     0.613120000000     0.290830000000     0.104073   
H12      H      0.623060000000     0.673430000000     0.410570000000     0.03263    
H13      H      0.576940000000     0.607350000000     0.435010000000     0.0495963  
H14      H      0.649580000000     0.612410000000     0.273810000000     0.0555586  
H15      H      0.620010000000     0.651400000000     0.331540000000     0.0355748  
H16      H      0.708940000000     0.517630000000     0.304050000000     0.0337099  
H17      H      0.651200000000     0.556340000000     0.437350000000     0.0413467  
H18      H      0.683140000000     0.519290000000     0.379930000000     0.0381639  
H19      H      0.662790000000     0.523280000000     0.260460000000     0.0547834  
H20      H      0.705060000000     0.679380000000     0.458400000000     0.102037   
H21      H      0.449200000000     0.855300000000     0.484040000000     0.103483   
H22      H      0.592360000000     0.715030000000     0.469220000000     0.0442894  
H23      H      0.636510000000     0.787100000000     0.459540000000     0.0298471  
H24      H      0.437160000000     0.740800000000     0.486380000000     0.038988   
H25      H      0.503090000000     0.713960000000     0.460850000000     0.0399871  
H26      H      0.413070000000     0.786340000000     0.543820000000     0.034307   
H27      H      0.632470000000     0.823830000000     0.558120000000     0.0416115  
H28      H      0.565640000000     0.849410000000     0.584470000000     0.0558118  
H29      H      0.466070000000     0.831990000000     0.584770000000     0.0490747  
H30      H      0.700480000000     0.785140000000     0.515140000000     0.0969759  
H31      H      0.618980000000     0.220720000000     0.650800000000     0.102022   
H32      H      0.557310000000     0.412710000000     0.719570000000     0.0386388  
H33      H      0.631540000000     0.436120000000     0.713900000000     0.0427605  
H34      H      0.470290000000     0.224840000000     0.662200000000     0.0403749  
H35      H      0.489560000000     0.318770000000     0.668250000000     0.03981    
H36      H      0.553360000000     0.169570000000     0.719500000000     0.0354344  
H37      H      0.652970000000     0.365530000000     0.735490000000     0.0364696  
H38      H      0.633390000000     0.271300000000     0.729820000000     0.0372212  
H39      H      0.495500000000     0.155860000000     0.678380000000     0.0450187  
H40      H      0.580760000000     0.399800000000     0.624950000000     0.099566   
H41      H      0.653230000000     0.087610000000     0.901850000000     0.106331   
H42      H      0.727580000000     0.166550000000     0.690140000000     0.0398479  
H43      H      0.718730000000     0.099750000000     0.685530000000     0.0509322  
H44      H      0.757470000000     0.201190000000     0.849770000000     0.0409184  
H45      H      0.741680000000     0.206190000000     0.766270000000     0.0383523  
H46      H      0.749280000000     0.077980000000     0.913050000000     0.0351965  
H47      H      0.698560000000     0.038000000000     0.755820000000     0.0460862  
H48      H      0.714170000000     0.032930000000     0.839320000000     0.0381852  
H49      H      0.780260000000     0.151420000000     0.915240000000     0.0409571  
H50      H      0.622500000000     0.109300000000     0.722310000000     0.102607   
H51      H      0.773100000000     0.251790000000     0.243970000000     0.0988432  
H52      H      0.518060000000     0.052180000000     0.330630000000     0.03048    
H53      H      0.538900000000     0.015620000000     0.371040000000     0.0440031  
H54      H      0.717220000000     0.077160000000     0.310260000000     0.0373187  
H55      H      0.623650000000     0.023900000000     0.343260000000     0.0374902  
H56      H      0.803430000000     0.217950000000     0.308560000000     0.03094    
H57      H      0.606760000000     0.167480000000     0.337680000000     0.0381779  
H58      H      0.701000000000     0.221070000000     0.305890000000     0.0377427  
H59      H      0.792310000000     0.160050000000     0.277580000000     0.0403424  
H60      H      0.523640000000     0.110950000000     0.388680000000     0.100763   
H61      H      0.801070000000     0.856130000000     0.109120000000     0.104927   
H62      H      0.801510000000     0.056150000000     0.997360000000     0.0437943  
H63      H      0.741470000000     0.997550000000     0.972540000000     0.0328397  
H64      H      0.904950000000     0.982810000000     0.085060000000     0.0381535  
H65      H      0.862970000000     0.039610000000     0.061520000000     0.0463934  
H66      H      0.867630000000     0.851910000000     0.033020000000     0.0414105  
H67      H      0.743940000000     0.914150000000     0.968690000000     0.0370784  
H68      H      0.786150000000     0.857830000000     0.991890000000     0.0378266  
H69      H      0.908830000000     0.899200000000     0.078660000000     0.0392818  
H70      H      0.703590000000     0.964980000000     0.051470000000     0.105644   
H71      H      0.554040000000     0.195620000000     0.044210000000     0.105522   
H72      H      0.719730000000     0.465660000000     0.182380000000     0.0491508  
H73      H      0.777700000000     0.459820000000     0.163280000000     0.0368965  
H74      H      0.568920000000     0.312270000000     0.083160000000     0.0397446  
H75      H      0.633370000000     0.408410000000     0.101580000000     0.0481511  
H76      H      0.578470000000     0.196650000000     0.142320000000     0.0176175  
H77      H      0.741170000000     0.363860000000     0.184860000000     0.040213   
H78      H      0.674500000000     0.267220000000     0.168520000000     0.0460236  
H79      H      0.532160000000     0.216180000000     0.112410000000     0.0290451  
H80      H      0.743060000000     0.472340000000     0.080630000000     0.10386    
H81      H      0.958800000000     0.363350000000     0.636880000000     0.1045     
H82      H      0.719540000000     0.240210000000     0.504770000000     0.0441428  
H83      H      0.754370000000     0.235650000000     0.457230000000     0.0326022  
H84      H      0.869090000000     0.378140000000     0.589470000000     0.04336    
H85      H      0.775660000000     0.306670000000     0.560080000000     0.0414211  
H86      H      0.008930000000     0.393550000000     0.555460000000     0.038503   
H87      H      0.856440000000     0.244920000000     0.478340000000     0.0366357  
H88      H      0.950040000000     0.315690000000     0.508740000000     0.0356354  
H89      H      0.978050000000     0.436800000000     0.552760000000     0.0502083  
H90      H      0.764440000000     0.160620000000     0.501820000000     0.102729   
H91      H      0.232400000000     0.780530000000     0.711780000000     0.104069   
H92      H      0.504380000000     0.908750000000     0.727570000000     0.0462579  
H93      H      0.493330000000     0.850100000000     0.697140000000     0.0417048  
H94      H      0.316290000000     0.849750000000     0.779970000000     0.0400081  
H95      H      0.413140000000     0.906640000000     0.753540000000     0.0396835  
H96      H      0.235050000000     0.696010000000     0.779190000000     0.0507229  
H97      H      0.414600000000     0.761300000000     0.718300000000     0.0369297  
H98      H      0.318960000000     0.704490000000     0.747170000000     0.0408998  
H99      H      0.235280000000     0.755290000000     0.799740000000     0.0391809  
H100     H      0.412500000000     0.870600000000     0.652760000000     0.102549   
H101     H      0.879010000000     0.521210000000     0.715890000000     0.109214   
H102     H      0.732190000000     0.502510000000     0.540990000000     0.037847   
H103     H      0.670250000000     0.455580000000     0.571730000000     0.0382443  
H104     H      0.884360000000     0.487830000000     0.614470000000     0.0493882  
H105     H      0.823990000000     0.508710000000     0.561530000000     0.0406987  
H106     H      0.835270000000     0.413520000000     0.729310000000     0.0374534  
H107     H      0.681710000000     0.412570000000     0.646700000000     0.0425944  
H108     H      0.742380000000     0.392740000000     0.700260000000     0.036606   
H109     H      0.883020000000     0.422110000000     0.685480000000     0.0473123  
H110     H      0.753800000000     0.546420000000     0.630550000000     0.10815    
H111     H      0.382490000000     0.525780000000     0.637030000000     0.0994325  
H112     H      0.334390000000     0.744050000000     0.632700000000     0.0350661  
H113     H      0.277720000000     0.713720000000     0.589740000000     0.0447706  
H114     H      0.448380000000     0.666660000000     0.613230000000     0.0429226  
H115     H      0.411250000000     0.725460000000     0.632160000000     0.0371241  
H116     H      0.355260000000     0.527850000000     0.556420000000     0.0330049  
H117     H      0.251040000000     0.615940000000     0.562270000000     0.0498185  
H118     H      0.288080000000     0.557080000000     0.543240000000     0.0362531  
H119     H      0.423620000000     0.584780000000     0.545100000000     0.0564825  
H120     H      0.283370000000     0.656840000000     0.680410000000     0.104554   
H121     H      0.277480000000     0.611520000000     0.991020000000     0.104174   
H122     H      0.087610000000     0.652380000000     0.889850000000     0.0412917  
H123     H      0.125650000000     0.689540000000     0.840010000000     0.0543468  
H124     H      0.249040000000     0.741460000000     0.988710000000     0.054199   
H125     H      0.164310000000     0.722760000000     0.940080000000     0.0360798  
H126     H      0.352930000000     0.698250000000     0.961810000000     0.0361173  
H127     H      0.205430000000     0.636680000000     0.845920000000     0.0483996  
H128     H      0.290000000000     0.656140000000     0.893610000000     0.0400489  
H129     H      0.337800000000     0.735350000000     0.001500000000     0.0515577  
H130     H      0.104820000000     0.574240000000     0.861090000000     0.102727   
H131     H      0.211580000000     0.710390000000     0.326760000000     0.103084   
H132     H      0.073650000000     0.490040000000     0.486800000000     0.0337873  
H133     H      0.136560000000     0.523200000000     0.523370000000     0.0503068  
H134     H      0.152400000000     0.550260000000     0.342770000000     0.0444672  
H135     H      0.095960000000     0.497620000000     0.408150000000     0.0361752  
H136     H      0.284570000000     0.690020000000     0.353610000000     0.0338527  
H137     H      0.202470000000     0.633560000000     0.496800000000     0.0436166  
H138     H      0.258640000000     0.686190000000     0.431470000000     0.0382093  
H139     H      0.252260000000     0.628810000000     0.320960000000     0.0504547  
H140     H      0.060550000000     0.571580000000     0.493670000000     0.103743   
H141     H      0.743250000000     0.297390000000     0.984900000000     0.105534   
H142     H      0.048320000000     0.533880000000     0.025200000000     0.0534807  
H143     H      0.999610000000     0.553570000000     0.043300000000     0.0410359  
H144     H      0.932410000000     0.338160000000     0.007190000000     0.0436437  
H145     H      0.010360000000     0.425410000000     0.036550000000     0.0470096  
H146     H      0.817510000000     0.327410000000     0.936840000000     0.0315093  
H147     H      0.903890000000     0.496890000000     0.014870000000     0.0373     
H148     H      0.825710000000     0.409860000000     0.985280000000     0.0407552  
H149     H      0.842980000000     0.287110000000     0.966790000000     0.0360234  
H150     H      0.989820000000     0.485760000000     0.114650000000     0.104152   
H151     H      0.298010000000     0.851210000000     0.189220000000     0.0992361  
H152     H      0.564770000000     0.939680000000     0.251240000000     0.030578   
H153     H      0.597020000000     0.949270000000     0.197620000000     0.0419447  
H154     H      0.387180000000     0.935990000000     0.197200000000     0.036337   
H155     H      0.480920000000     0.973690000000     0.235950000000     0.0377662  
H156     H      0.336030000000     0.898750000000     0.114740000000     0.0314399  
H157     H      0.523620000000     0.885070000000     0.145560000000     0.041515   
H158     H      0.428010000000     0.844830000000     0.108210000000     0.0445724  
H159     H      0.337580000000     0.840110000000     0.096310000000     0.0512945  
H160     H      0.580440000000     0.031130000000     0.247310000000     0.100109   
H161     H      0.969950000000     0.544820000000     0.228770000000     0.0997894  
H162     H      0.903840000000     0.624140000000     0.983860000000     0.0311138  
H163     H      0.868460000000     0.551840000000     0.989330000000     0.0304282  
H164     H      0.881920000000     0.515860000000     0.151410000000     0.0405596  
H165     H      0.843120000000     0.507180000000     0.071530000000     0.0407503  
H166     H      0.988550000000     0.654400000000     0.203740000000     0.0363872  
H167     H      0.956670000000     0.679660000000     0.048270000000     0.0321197  
H168     H      0.997440000000     0.687390000000     0.126630000000     0.0375052  
H169     H      0.923120000000     0.593610000000     0.215840000000     0.0362848  
H170     H      0.792440000000     0.566650000000     0.970890000000     0.101181   
H171     H      0.354280000000     0.621980000000     0.182580000000     0.105934   
H172     H      0.649000000000     0.752180000000     0.196270000000     0.040363   
H173     H      0.624910000000     0.697410000000     0.238060000000     0.0383124  
H174     H      0.434430000000     0.646520000000     0.260320000000     0.0392382  
H175     H      0.525140000000     0.647970000000     0.259270000000     0.0374685  
H176     H      0.386850000000     0.704010000000     0.242530000000     0.0411823  
H177     H      0.576870000000     0.767060000000     0.148100000000     0.0408301  
H178     H      0.486090000000     0.765470000000     0.148990000000     0.0410467  
H179     H      0.402280000000     0.743920000000     0.189750000000     0.0503108  
H180     H      0.575580000000     0.651880000000     0.147760000000     0.108735   
H181     H      0.760260000000     0.744340000000     0.716890000000     0.102398   
H182     H      0.958580000000     0.021660000000     0.668300000000     0.0465363  
H183     H      0.992190000000     0.995580000000     0.707690000000     0.0363618  
H184     H      0.780800000000     0.861360000000     0.621450000000     0.0406729  
H185     H      0.878160000000     0.937440000000     0.610150000000     0.0490687  
H186     H      0.723750000000     0.808150000000     0.736590000000     0.0335077  
H187     H      0.923180000000     0.923250000000     0.752610000000     0.0382756  
H188     H      0.826050000000     0.848000000000     0.763900000000     0.0371001  
H189     H      0.705800000000     0.809740000000     0.676310000000     0.0447528  
H190     H      0.004110000000     0.948130000000     0.640770000000     0.10686    
H191     H      0.388000000000     0.422020000000     0.589310000000     0.100325   
H192     H      0.276830000000     0.206560000000     0.432530000000     0.0404495  
H193     H      0.348000000000     0.219960000000     0.439780000000     0.0290653  
H194     H      0.291800000000     0.371010000000     0.475510000000     0.0378516  
H195     H      0.257390000000     0.277520000000     0.450810000000     0.0531482  
H196     H      0.429810000000     0.470280000000     0.494000000000     0.0462996  
H197     H      0.414980000000     0.289130000000     0.502170000000     0.0383077  
H198     H      0.450240000000     0.383440000000     0.525790000000     0.0408597  
H199     H      0.361440000000     0.453130000000     0.512880000000     0.0333206  
H200     H      0.314530000000     0.154130000000     0.497860000000     0.101715   
H201     H      0.922020000000     0.015930000000     0.458040000000     0.104558   
H202     H      0.712360000000     0.904750000000     0.616640000000     0.0347502  
H203     H      0.721770000000     0.966860000000     0.639110000000     0.0481139  
H204     H      0.835530000000     0.960670000000     0.492640000000     0.0394991  
H205     H      0.764950000000     0.907890000000     0.548970000000     0.0361547  
H206     H      0.872740000000     0.065630000000     0.448280000000     0.0337592  
H207     H      0.795950000000     0.057290000000     0.608770000000     0.0422021  
H208     H      0.869010000000     0.110830000000     0.553190000000     0.0369082  
H209     H      0.921780000000     0.116890000000     0.487630000000     0.0441745  
H210     H      0.676550000000     0.929490000000     0.540830000000     0.0999079  
H211     H      0.203190000000     0.066290000000     0.684510000000     0.101473   
H212     H      0.352800000000     0.094040000000     0.493860000000     0.0352777  
H213     H      0.425160000000     0.139290000000     0.512050000000     0.0436447  
H214     H      0.266190000000     0.042030000000     0.646320000000     0.044839   
H215     H      0.305410000000     0.025950000000     0.580680000000     0.0432584  
H216     H      0.296810000000     0.127600000000     0.711240000000     0.0327059  
H217     H      0.413850000000     0.200400000000     0.560170000000     0.0364532  
H218     H      0.371270000000     0.216450000000     0.624730000000     0.0369098  
H219     H      0.296950000000     0.183400000000     0.679190000000     0.041842   
H220     H      0.356350000000     0.015910000000     0.527610000000     0.103118   
H221     H      0.063890000000     0.905030000000     0.479810000000     0.103403   
H222     H      0.936070000000     0.706960000000     0.622340000000     0.0345189  
H223     H      0.959040000000     0.668480000000     0.593080000000     0.0479269  
H224     H      0.101020000000     0.801940000000     0.500540000000     0.0383996  
H225     H      0.034150000000     0.716550000000     0.539670000000     0.0444676  
H226     H      0.166440000000     0.936240000000     0.546920000000     0.0534827  
H227     H      0.010990000000     0.809240000000     0.640250000000     0.0412338  
H228     H      0.078430000000     0.894810000000     0.601360000000     0.0512737  
H229     H      0.153750000000     0.900050000000     0.494600000000     0.0377196  
H230     H      0.993040000000     0.711630000000     0.688850000000     0.107927   
H231     H      0.197430000000     0.479650000000     0.739250000000     0.100106   
H232     H      0.047740000000     0.274750000000     0.546050000000     0.0426058  
H233     H      0.074730000000     0.327320000000     0.502950000000     0.0310943  
H234     H      0.156550000000     0.362270000000     0.683940000000     0.041898   
H235     H      0.099380000000     0.293210000000     0.625580000000     0.0431379  
H236     H      0.248450000000     0.459400000000     0.691380000000     0.031424   
H237     H      0.146670000000     0.421270000000     0.522190000000     0.035806   
H238     H      0.203320000000     0.489930000000     0.580350000000     0.0482019  
H239     H      0.251320000000     0.513630000000     0.654960000000     0.043214   
H240     H      0.160240000000     0.320260000000     0.498960000000     0.100905   
H241     H      0.175900000000     0.250660000000     0.702580000000     0.101709   
H242     H      0.209150000000     0.221140000000     0.921040000000     0.0489383  
H243     H      0.137380000000     0.184830000000     0.939540000000     0.0426923  
H244     H      0.057240000000     0.213600000000     0.801730000000     0.0374144  
H245     H      0.087190000000     0.209130000000     0.881940000000     0.0386351  
H246     H      0.061940000000     0.146270000000     0.716600000000     0.0466246  
H247     H      0.204450000000     0.162180000000     0.838650000000     0.0447095  
H248     H      0.173370000000     0.165230000000     0.758330000000     0.0453394  
H249     H      0.067740000000     0.211820000000     0.721080000000     0.0323332  
H250     H      0.142280000000     0.097700000000     0.910710000000     0.109158   
H251     H      0.244730000000     0.029140000000     0.238240000000     0.0986141  
H252     H      0.122390000000     0.153450000000     0.356250000000     0.037355   
H253     H      0.064610000000     0.091060000000     0.378120000000     0.0499325  
H254     H      0.201710000000     0.099940000000     0.245000000000     0.0362142  
H255     H      0.181210000000     0.150970000000     0.297230000000     0.0374952  
H256     H      0.155760000000     0.953610000000     0.263610000000     0.0301845  
H257     H      0.052190000000     0.000120000000     0.357390000000     0.0463768  
H258     H      0.072200000000     0.947930000000     0.304580000000     0.0371664  
H259     H      0.117340000000     0.962730000000     0.216090000000     0.0409058  
H260     H      0.188520000000     0.122410000000     0.400110000000     0.103528   
H261     H      0.971440000000     0.734930000000     0.170230000000     0.0959932  
H262     H      0.011130000000     0.897460000000     0.972670000000     0.0338574  
H263     H      0.032340000000     0.961360000000     0.997960000000     0.0473739  
H264     H      0.987920000000     0.773670000000     0.095680000000     0.0347433  
H265     H      0.010720000000     0.820660000000     0.021670000000     0.0358146  
H266     H      0.023090000000     0.825080000000     0.199450000000     0.0298441  
H267     H      0.035910000000     0.967340000000     0.082500000000     0.0383436  
H268     H      0.012760000000     0.920210000000     0.157640000000     0.0376816  
H269     H      0.960210000000     0.829480000000     0.199470000000     0.0436932  
H270     H      0.106900000000     0.914730000000     0.978420000000     0.105873   
H271     H      0.459880000000     0.236060000000     0.091770000000     0.0988312  
H272     H      0.469120000000     0.471780000000     0.153960000000     0.0327105  
H273     H      0.533600000000     0.491220000000     0.186200000000     0.0510467  
H274     H      0.382130000000     0.282740000000     0.141130000000     0.045904   
H275     H      0.407010000000     0.378350000000     0.133590000000     0.0388648  
H276     H      0.490290000000     0.237480000000     0.173700000000     0.0309295  
H277     H      0.578730000000     0.428740000000     0.182710000000     0.0574271  
H278     H      0.554630000000     0.332730000000     0.187640000000     0.038936   
H279     H      0.419990000000     0.217170000000     0.189670000000     0.0432522  
H280     H      0.515630000000     0.495030000000     0.082970000000     0.101282   
H281     H      0.056530000000     0.102470000000     0.116270000000     0.103695   
H282     H      0.863870000000     0.126960000000     0.212870000000     0.0412602  
H283     H      0.910610000000     0.194070000000     0.233430000000     0.0322749  
H284     H      0.984450000000     0.062260000000     0.176120000000     0.0390196  
H285     H      0.902030000000     0.073320000000     0.184580000000     0.0411467  
H286     H      0.138200000000     0.180710000000     0.184880000000     0.0397517  
H287     H      0.014540000000     0.244960000000     0.211110000000     0.0368599  
H288     H      0.096900000000     0.234050000000     0.202390000000     0.0369992  
H289     H      0.098110000000     0.112810000000     0.209470000000     0.0426489  
H290     H      0.922540000000     0.231620000000     0.153400000000     0.104337   
H291     H      0.361960000000     0.081640000000     0.922700000000     0.105056   
H292     H      0.479350000000     0.025690000000     0.123940000000     0.0438585  
H293     H      0.436300000000     0.971990000000     0.084270000000     0.0328582  
H294     H      0.470820000000     0.086740000000     0.941220000000     0.0436423  
H295     H      0.488890000000     0.027190000000     0.994320000000     0.0490031  
H296     H      0.430070000000     0.187400000000     0.975650000000     0.0461367  
H297     H      0.438710000000     0.084120000000     0.106940000000     0.0405173  
H298     H      0.418930000000     0.142340000000     0.053090000000     0.0498028  
H299     H      0.453930000000     0.165190000000     0.929550000000     0.0363868  
H300     H      0.517980000000     0.978110000000     0.055870000000     0.105352   
H301     H      0.126140000000     0.691490000000     0.010930000000     0.103125   
H302     H      0.226630000000     0.948870000000     0.165330000000     0.0420745  
H303     H      0.279110000000     0.929500000000     0.161160000000     0.0292147  
H304     H      0.077340000000     0.775980000000     0.121030000000     0.0344804  
H305     H      0.141560000000     0.860350000000     0.161660000000     0.0366145  
H306     H      0.055530000000     0.714030000000     0.060330000000     0.0367738  
H307     H      0.265540000000     0.904730000000     0.059080000000     0.0462959  
H308     H      0.200270000000     0.820730000000     0.017780000000     0.0439039  
H309     H      0.085730000000     0.746490000000     0.006950000000     0.0291523  
H310     H      0.324050000000     0.998770000000     0.106190000000     0.102211   
H311     H      0.178950000000     0.455180000000     0.209530000000     0.0977486  
H312     H      0.314720000000     0.328320000000     0.162990000000     0.030781   
H313     H      0.247500000000     0.267280000000     0.169040000000     0.04206    
H314     H      0.106980000000     0.315790000000     0.132860000000     0.0390226  
H315     H      0.157640000000     0.264790000000     0.134350000000     0.0424442  
H316     H      0.159610000000     0.446270000000     0.105080000000     0.0571474  
H317     H      0.317680000000     0.415200000000     0.153110000000     0.0368807  
H318     H      0.267370000000     0.466640000000     0.150200000000     0.0495568  
H319     H      0.105860000000     0.398610000000     0.142380000000     0.036715   
H320     H      0.283200000000     0.317760000000     0.073390000000     0.1062     
N1       N      0.595150000000     0.644220000000     0.760710000000    -0.224637   
N2       N      0.728730000000     0.736170000000     0.989300000000    -0.219826   
N3       N      0.745240000000     0.594220000000     0.269690000000    -0.2272     
N4       N      0.662520000000     0.650550000000     0.464110000000    -0.22626    
N5       N      0.468770000000     0.864720000000     0.516980000000    -0.222673   
N6       N      0.657840000000     0.755850000000     0.519830000000    -0.225927   
N7       N      0.577200000000     0.187690000000     0.651080000000    -0.228906   
N8       N      0.584080000000     0.425230000000     0.651250000000    -0.227125   
N9       N      0.691170000000     0.104580000000     0.922130000000    -0.209018   
N10      N      0.643430000000     0.101570000000     0.697510000000    -0.219058   
N11      N      0.768820000000     0.213180000000     0.241310000000    -0.220415   
N12      N      0.538090000000     0.083700000000     0.397550000000    -0.237357   
N13      N      0.824280000000     0.841520000000     0.093680000000    -0.230136   
N14      N      0.735370000000     0.004830000000     0.043160000000    -0.228542   
N15      N      0.585930000000     0.207120000000     0.070250000000    -0.225394   
N16      N      0.739350000000     0.486620000000     0.111860000000    -0.223381   
N17      N      0.978220000000     0.400110000000     0.617890000000    -0.227431   
N18      N      0.735580000000     0.173490000000     0.507420000000    -0.232244   
N19      N      0.216610000000     0.742520000000     0.728740000000    -0.224733   
N20      N      0.455140000000     0.892660000000     0.664700000000    -0.222153   
N21      N      0.896270000000     0.495740000000     0.714120000000    -0.228047   
N22      N      0.723380000000     0.532420000000     0.603110000000    -0.226418   
N23      N      0.412040000000     0.554230000000     0.614460000000    -0.224922   
N24      N      0.264610000000     0.669010000000     0.653590000000    -0.224881   
N25      N      0.288540000000     0.648170000000     0.006840000000    -0.203631   
N26      N      0.098560000000     0.604110000000     0.843710000000    -0.204932   
N27      N      0.210950000000     0.675950000000     0.314670000000    -0.223872   
N28      N      0.086270000000     0.562090000000     0.515770000000    -0.222633   
N29      N      0.775560000000     0.289840000000     0.997250000000    -0.228231   
N30      N      0.023450000000     0.512870000000     0.094350000000    -0.218359   
N31      N      0.299270000000     0.831570000000     0.160280000000    -0.224493   
N32      N      0.592790000000     0.017320000000     0.220190000000    -0.231471   
N33      N      0.992070000000     0.581390000000     0.209940000000    -0.234169   
N34      N      0.817800000000     0.586340000000     0.000080000000    -0.224085   
N35      N      0.351850000000     0.657660000000     0.182810000000    -0.217942   
N36      N      0.612450000000     0.673020000000     0.168900000000    -0.227914   
N37      N      0.730340000000     0.751190000000     0.698120000000    -0.224481   
N38      N      0.997410000000     0.981410000000     0.638700000000    -0.224778   
N39      N      0.416190000000     0.448770000000     0.565080000000    -0.225828   
N40      N      0.296700000000     0.179210000000     0.495900000000    -0.21893    
N41      N      0.936980000000     0.051670000000     0.476660000000    -0.225482   
N42      N      0.676790000000     0.942870000000     0.573680000000    -0.214585   
N43      N      0.223070000000     0.105220000000     0.668930000000    -0.218174   
N44      N      0.392870000000     0.054750000000     0.528170000000    -0.2242     
N45      N      0.098110000000     0.929830000000     0.502240000000    -0.203406   
N46      N      0.998570000000     0.695820000000     0.659270000000    -0.222183   
N47      N      0.188400000000     0.482250000000     0.704150000000    -0.206794   
N48      N      0.126050000000     0.292130000000     0.518260000000    -0.226843   
N49      N      0.138520000000     0.214660000000     0.693060000000    -0.23594    
N50      N      0.170770000000     0.134360000000     0.927140000000    -0.228656   
N51      N      0.206990000000     0.018780000000     0.219070000000    -0.233012   
N52      N      0.147440000000     0.113240000000     0.407040000000    -0.220715   
N53      N      0.948810000000     0.754730000000     0.175200000000    -0.228346   
N54      N      0.098430000000     0.943120000000     0.992130000000    -0.223234   
N55      N      0.430750000000     0.219010000000     0.117730000000    -0.235079   
N56      N      0.539350000000     0.497030000000     0.113200000000    -0.210897   
N57      N      0.093650000000     0.116620000000     0.137340000000    -0.223438   
N58      N      0.891100000000     0.191840000000     0.162290000000    -0.229756   
N59      N      0.367960000000     0.113200000000     0.943690000000    -0.210827   
N60      N      0.524660000000     0.010190000000     0.076510000000    -0.219327   
N61      N      0.124450000000     0.706450000000     0.042390000000    -0.227171   
N62      N      0.281400000000     0.986240000000     0.110590000000    -0.220225   
N63      N      0.173550000000     0.467050000000     0.175940000000    -0.222135   
N64      N      0.275020000000     0.289320000000     0.100330000000    -0.240016   
O1       O      0.268270000000     0.209520000000     0.124340000000    -0.514073   
O2       O      0.192580000000     0.000140000000     0.009160000000    -0.401508   
O3       O      0.239360000000     0.175640000000     0.983370000000    -0.46927    
O4       O      0.123680000000     0.076900000000     0.089870000000    -0.445873   
O5       O      0.209680000000     0.091450000000     0.969870000000    -0.439222   
O6       O      0.180840000000     0.123640000000     0.148380000000    -0.43535    
O7       O      0.135110000000     0.025490000000     0.026270000000    -0.455293   
O8       O      0.283200000000     0.233410000000     0.052820000000    -0.47358    
O9       O      0.256480000000     0.077640000000     0.161990000000    -0.47742    
O10      O      0.281640000000     0.057190000000     0.972120000000    -0.411236   
O11      O      0.360240000000     0.199470000000     0.064210000000    -0.488254   
O12      O      0.205350000000     0.998070000000     0.091070000000    -0.418856   
O13      O      0.289550000000     0.054020000000     0.061830000000    -0.451347   
O14      O      0.337650000000     0.168850000000     0.134350000000    -0.480574   
O15      O      0.166130000000     0.032440000000     0.153290000000    -0.460889   
O16      O      0.324330000000     0.144520000000     0.988100000000    -0.489954   
O17      O      0.236270000000     0.111440000000     0.069160000000    -0.545054   
O18      O      0.159640000000     0.089560000000     0.480200000000    -0.412054   
O19      O      0.083610000000     0.210370000000     0.557290000000    -0.455624   
O20      O      0.004180000000     0.036950000000     0.511780000000    -0.393363   
O21      O      0.226190000000     0.192180000000     0.518230000000    -0.448793   
O22      O      0.008570000000     0.114670000000     0.522570000000    -0.464888   
O23      O      0.229950000000     0.121310000000     0.545100000000    -0.355157   
O24      O      0.169290000000     0.242140000000     0.530510000000    -0.45731    
O25      O      0.086120000000     0.092580000000     0.463900000000    -0.385982   
O26      O      0.154300000000     0.073560000000     0.612110000000    -0.369423   
O27      O      0.016460000000     0.061800000000     0.602910000000    -0.460079   
O28      O      0.067220000000     0.991420000000     0.499300000000    -0.359374   
O29      O      0.171020000000     0.221890000000     0.622080000000    -0.482216   
O30      O      0.086600000000     0.154890000000     0.636770000000    -0.497919   
O31      O      0.148640000000     0.012620000000     0.538650000000    -0.348435   
O32      O      0.218260000000     0.162330000000     0.613200000000    -0.431381   
O33      O      0.059200000000     0.018960000000     0.581120000000    -0.420336   
O34      O      0.118190000000     0.132190000000     0.553630000000    -0.551545   
O35      O      0.117450000000     0.577910000000     0.092090000000    -0.364796   
O36      O      0.144160000000     0.709710000000     0.119790000000    -0.449565   
O37      O      0.074080000000     0.580870000000     0.225950000000    -0.482473   
O38      O      0.278200000000     0.689010000000     0.068580000000    -0.364179   
O39      O      0.075960000000     0.643710000000     0.179670000000    -0.484472   
O40      O      0.220870000000     0.599040000000     0.059100000000    -0.352811   
O41      O      0.176570000000     0.671470000000     0.075760000000    -0.426765   
O42      O      0.082890000000     0.530920000000     0.157320000000    -0.43867    
O43      O      0.267250000000     0.615350000000     0.141970000000    -0.403176   
O44      O      0.163980000000     0.681430000000     0.249310000000    -0.442919   
O45      O      0.187520000000     0.547730000000     0.201450000000    -0.450494   
O46      O      0.259070000000     0.751740000000     0.121540000000    -0.385024   
O47      O      0.230270000000     0.751720000000     0.189150000000    -0.467276   
O48      O      0.169770000000     0.531640000000     0.129080000000    -0.373354   
O49      O      0.296070000000     0.694870000000     0.163150000000    -0.38314    
O50      O      0.180320000000     0.611950000000     0.259290000000    -0.456497   
O51      O      0.176540000000     0.638390000000     0.169320000000    -0.558299   
O52      O      0.040110000000     0.491520000000     0.620190000000    -0.451874   
O53      O      0.051490000000     0.666810000000     0.701550000000    -0.415302   
O54      O      0.976340000000     0.490090000000     0.724070000000    -0.431286   
O55      O      0.074000000000     0.605290000000     0.573400000000    -0.443588   
O56      O      0.984640000000     0.569510000000     0.717140000000    -0.461821   
O57      O      0.124860000000     0.566230000000     0.588260000000    -0.41582    
O58      O      0.039770000000     0.653500000000     0.627360000000    -0.442938   
O59      O      0.021130000000     0.447060000000     0.682930000000    -0.434554   
O60      O      0.178390000000     0.602590000000     0.675920000000    -0.444428   
O61      O      0.059940000000     0.625300000000     0.780320000000    -0.435038   
O62      O      0.128720000000     0.513200000000     0.721440000000    -0.413847   
O63      O      0.146990000000     0.705190000000     0.672460000000    -0.448201   
O64      O      0.145030000000     0.653470000000     0.730990000000    -0.453265   
O65      O      0.139720000000     0.503350000000     0.648360000000    -0.435675   
O66      O      0.181440000000     0.657330000000     0.619500000000    -0.444461   
O67      O      0.077120000000     0.556800000000     0.777290000000    -0.441071   
O68      O      0.071410000000     0.580600000000     0.667440000000    -0.638314   
O69      O      0.587720000000     0.092750000000     0.108510000000    -0.425244   
O70      O      0.779080000000     0.095420000000     0.058460000000    -0.462336   
O71      O      0.643320000000     0.109720000000     0.980560000000    -0.425269   
O72      O      0.643760000000     0.041600000000     0.155860000000    -0.463514   
O73      O      0.734330000000     0.134180000000     0.993740000000    -0.463161   
O74      O      0.638920000000     0.103380000000     0.190630000000    -0.462342   
O75      O      0.708430000000     0.037410000000     0.099710000000    -0.460166   
O76      O      0.617350000000     0.056410000000     0.058910000000    -0.44017    
O77      O      0.724020000000     0.204830000000     0.171560000000    -0.436872   
O78      O      0.796630000000     0.235280000000     0.043470000000    -0.452223   
O79      O      0.614400000000     0.152100000000     0.042320000000    -0.400073   
O80      O      0.802810000000     0.119790000000     0.145270000000    -0.466409   
O81      O      0.833670000000     0.194300000000     0.104100000000    -0.448651   
O82      O      0.666370000000     0.207430000000     0.096080000000    -0.453966   
O83      O      0.740340000000     0.138330000000     0.197070000000    -0.426438   
O84      O      0.711250000000     0.203270000000     0.017030000000    -0.443878   
O85      O      0.710630000000     0.139450000000     0.099560000000    -0.57298    
O86      O      0.442200000000     0.017890000000     0.562910000000    -0.448502   
O87      O      0.525190000000     0.953130000000     0.494480000000    -0.449483   
O88      O      0.546270000000     0.105580000000     0.472070000000    -0.49664    
O89      O      0.543380000000     0.963240000000     0.647510000000    -0.38971    
O90      O      0.569380000000     0.046560000000     0.454270000000    -0.480167   
O91      O      0.470620000000     0.955870000000     0.608670000000    -0.45002    
O92      O      0.534080000000     0.930730000000     0.564900000000    -0.416465   
O93      O      0.489670000000     0.103630000000     0.539100000000    -0.439406   
O94      O      0.558150000000     0.051770000000     0.658860000000    -0.433294   
O95      O      0.664850000000     0.084920000000     0.509040000000    -0.47543    
O96      O      0.596180000000     0.151300000000     0.592440000000    -0.477753   
O97      O      0.632030000000     0.972790000000     0.617130000000    -0.40898    
O98      O      0.630830000000     0.985590000000     0.542500000000    -0.489399   
O99      O      0.513390000000     0.104880000000     0.620080000000    -0.449203   
O100     O      0.636070000000     0.065340000000     0.627530000000    -0.436763   
O101     O      0.645200000000     0.148750000000     0.522430000000    -0.484566   
O102     O      0.554820000000     0.043390000000     0.557730000000    -0.540956   
O103     O      0.621850000000     0.559950000000     0.079610000000    -0.422271   
O104     O      0.776220000000     0.763120000000     0.134230000000    -0.480277   
O105     O      0.652180000000     0.632920000000     0.132750000000    -0.434396   
O106     O      0.786640000000     0.710640000000     0.028150000000    -0.434487   
O107     O      0.702260000000     0.689100000000     0.187210000000    -0.452077   
O108     O      0.693480000000     0.660440000000     0.036310000000    -0.415726   
O109     O      0.845210000000     0.773140000000     0.093420000000    -0.45329    
O110     O      0.626310000000     0.530010000000     0.149340000000    -0.429426   
O111     O      0.757670000000     0.617010000000     0.012770000000    -0.417121   
O112     O      0.785500000000     0.662940000000     0.217130000000    -0.469525   
O113     O      0.730780000000     0.552810000000     0.145540000000    -0.438238   
O114     O      0.875570000000     0.695010000000     0.129810000000    -0.452911   
O115     O      0.861630000000     0.747090000000     0.172400000000    -0.449635   
O116     O      0.710400000000     0.539750000000     0.073100000000    -0.452447   
O117     O      0.825900000000     0.635700000000     0.062190000000    -0.457483   
O118     O      0.699600000000     0.596840000000     0.202530000000    -0.431697   
O119     O      0.758460000000     0.656100000000     0.117470000000    -0.565183   
O120     O      0.505230000000     0.520420000000     0.552580000000    -0.448275   
O121     O      0.594570000000     0.682130000000     0.560860000000    -0.445252   
O122     O      0.485010000000     0.558900000000     0.660540000000    -0.441736   
O123     O      0.687740000000     0.637660000000     0.537310000000    -0.447064   
O124     O      0.504690000000     0.611110000000     0.599390000000    -0.4556     
O125     O      0.597970000000     0.593460000000     0.515120000000    -0.45593    
O126     O      0.685020000000     0.714280000000     0.576150000000    -0.44172    
O127     O      0.486570000000     0.481910000000     0.620820000000    -0.450279   
O128     O      0.656980000000     0.545210000000     0.561370000000    -0.442435   
O129     O      0.561660000000     0.644140000000     0.687120000000    -0.440301   
O130     O      0.589730000000     0.505790000000     0.667620000000    -0.44379    
O131     O      0.695500000000     0.669840000000     0.663870000000    -0.445517   
O132     O      0.651820000000     0.715450000000     0.648530000000    -0.438809   
O133     O      0.566160000000     0.475420000000     0.597640000000    -0.459214   
O134     O      0.698240000000     0.592730000000     0.623130000000    -0.453449   
O135     O      0.590410000000     0.586480000000     0.707150000000    -0.448022   
O136     O      0.597410000000     0.595660000000     0.611330000000    -0.52428    


