data_structure

_audit_creation_method RASPA-1.0
_audit_creation_date 2023-5-9
_audit_author_name 'Poobodin Mano'

_cell_length_a    47.2436
_cell_length_b    47.4937
_cell_length_c    47.8097
_cell_angle_alpha 90
_cell_angle_beta  90
_cell_angle_gamma 90
_cell_volume      107274

_symmetry_cell_setting          triclinic
_symmetry_space_group_name_Hall 'P 1'
_symmetry_space_group_name_H-M  'P 1'
_symmetry_Int_Tables_number     1

_symmetry_equiv_pos_as_xyz 'x,y,z'

loop_
_atom_site_label
_atom_site_type_symbol
_atom_site_fract_x
_atom_site_fract_y
_atom_site_fract_z
_atom_site_charge
C1       C      0.085000000000     0.011040000000     0.222150000000     0.397954   
C2       C      0.521960000000     0.442760000000     0.309170000000     0.399957   
C3       C      0.091040000000     0.013090000000     0.310040000000     0.401461   
C4       C      0.506200000000     0.451670000000     0.217400000000     0.403958   
C5       C      0.459340000000     0.515860000000     0.228790000000     0.409819   
C6       C      0.025960000000     0.067490000000     0.316350000000     0.411103   
C7       C      0.040550000000     0.069240000000     0.214080000000     0.406611   
C8       C      0.471050000000     0.489440000000     0.328860000000     0.40749    
C9       C      0.058680000000     0.214690000000     0.069420000000     0.405565   
C10      C      0.470430000000     0.325680000000     0.486610000000     0.40692    
C11      C      0.019650000000     0.313400000000     0.073680000000     0.412952   
C12      C      0.464110000000     0.225120000000     0.523540000000     0.413789   
C13      C      0.504320000000     0.210320000000     0.462200000000     0.409123   
C14      C      0.083620000000     0.320410000000     0.017290000000     0.401946   
C15      C      0.088830000000     0.231680000000     0.009650000000     0.398977   
C16      C      0.524670000000     0.305480000000     0.448620000000     0.396209   
C17      C      0.323970000000     0.040820000000     0.078090000000     0.409939   
C18      C      0.215630000000     0.474180000000     0.509310000000     0.411044   
C19      C      0.213680000000     0.044490000000     0.071150000000     0.40701    
C20      C      0.324770000000     0.468440000000     0.510890000000     0.407456   
C21      C      0.318400000000     0.520480000000     0.457830000000     0.400484   
C22      C      0.229130000000     0.097240000000     0.021500000000     0.401803   
C23      C      0.317960000000     0.093530000000     0.025350000000     0.403079   
C24      C      0.233960000000     0.525620000000     0.451810000000     0.402082   
C25      C      0.398690000000     0.431030000000     0.486890000000    -0.0391977  
C26      C      0.369130000000     0.446280000000     0.528060000000    -0.0222289  
C27      C      0.431450000000     0.391650000000     0.490080000000     0.0191365  
C28      C      0.389780000000     0.426290000000     0.514500000000     0.0181749  
C29      C      0.456020000000     0.375250000000     0.478280000000    -0.0222081  
C30      C      0.401510000000     0.403790000000     0.529660000000    -0.0441141  
C31      C      0.422280000000     0.386690000000     0.517580000000    -0.0393038  
C32      C      0.419350000000     0.413860000000     0.474770000000    -0.044709   
C33      C      0.359980000000     0.172540000000     0.559440000000    -0.0411683  
C34      C      0.322440000000     0.143230000000     0.535540000000    -0.0199649  
C35      C      0.389330000000     0.205220000000     0.533200000000     0.018784   
C36      C      0.345760000000     0.164840000000     0.534810000000     0.0165526  
C37      C      0.412450000000     0.227010000000     0.532400000000    -0.021239   
C38      C      0.353680000000     0.177250000000     0.509340000000    -0.0419457  
C39      C      0.375440000000     0.197150000000     0.508510000000    -0.0416539  
C40      C      0.381580000000     0.192630000000     0.558640000000    -0.0427559  
C41      C      0.130470000000     0.385920000000     0.525410000000    -0.0382826  
C42      C      0.113540000000     0.352120000000     0.487110000000    -0.0226942  
C43      C      0.150590000000     0.431250000000     0.512860000000     0.0166233  
C44      C      0.125740000000     0.379780000000     0.496960000000     0.0208469  
C45      C      0.167440000000     0.456950000000     0.520550000000    -0.0191688  
C46      C      0.132680000000     0.400100000000     0.476760000000    -0.0449355  
C47      C      0.145030000000     0.425570000000     0.484610000000    -0.0384811  
C48      C      0.143080000000     0.411350000000     0.533230000000    -0.0425922  
C49      C      0.206490000000     0.187590000000     0.002110000000    -0.041793   
C50      C      0.224020000000     0.148000000000     0.032800000000    -0.0195669  
C51      C      0.162850000000     0.212660000000     0.012540000000     0.0196011  
C52      C      0.203180000000     0.171170000000     0.026310000000     0.0159679  
C53      C      0.141250000000     0.234920000000     0.005450000000    -0.0235035  
C54      C      0.179550000000     0.175620000000     0.043570000000    -0.0409558  
C55      C      0.159590000000     0.196280000000     0.036780000000    -0.0402415  
C56      C      0.186480000000     0.208160000000     0.995260000000    -0.0439604  
C57      C      0.390690000000     0.007780000000     0.424800000000    -0.0420658  
C58      C      0.353660000000     0.046170000000     0.427500000000    -0.0242981  
C59      C      0.428190000000     0.009060000000     0.389970000000     0.0141123  
C60      C      0.379000000000     0.032640000000     0.413780000000     0.0214857  
C61      C      0.454980000000     0.997180000000     0.377530000000    -0.0190841  
C62      C      0.392190000000     0.045610000000     0.390810000000    -0.0469011  
C63      C      0.416590000000     0.033940000000     0.379040000000    -0.0381515  
C64      C      0.414990000000     0.995990000000     0.412880000000    -0.0399627  
C65      C      0.192980000000     0.518260000000     0.330650000000    -0.0426709  
C66      C      0.141880000000     0.525300000000     0.316230000000    -0.0207192  
C67      C      0.206780000000     0.516140000000     0.379660000000     0.0168525  
C68      C      0.164490000000     0.521770000000     0.338320000000     0.0167325  
C69      C      0.229300000000     0.512320000000     0.401800000000    -0.0208934  
C70      C      0.157380000000     0.522560000000     0.366850000000    -0.0409659  
C71      C      0.178180000000     0.519030000000     0.387270000000    -0.0407839  
C72      C      0.213940000000     0.515450000000     0.351150000000    -0.0430994  
C73      C      0.161690000000     0.495660000000     0.124830000000    -0.0398936  
C74      C      0.164910000000     0.532970000000     0.087500000000    -0.0212535  
C75      C      0.125770000000     0.497280000000     0.161260000000     0.0209053  
C76      C      0.151740000000     0.521170000000     0.113740000000     0.0161231  
C77      C      0.110650000000     0.483630000000     0.185530000000    -0.0235884  
C78      C      0.128470000000     0.036390000000     0.126170000000    -0.0418972  
C79      C      0.115550000000     0.024250000000     0.149580000000    -0.0411737  
C80      C      0.148840000000     0.483820000000     0.148390000000    -0.0457436  
C81      C      0.411880000000     0.057620000000     0.153260000000    -0.0427688  
C82      C      0.433730000000     0.053120000000     0.201220000000    -0.0217174  
C83      C      0.361080000000     0.053460000000     0.145970000000     0.0169174  
C84      C      0.408330000000     0.053050000000     0.182060000000     0.0185281  
C85      C      0.335670000000     0.054020000000     0.126790000000    -0.0203756  
C86      C      0.380800000000     0.049910000000     0.192800000000    -0.0404148  
C87      C      0.357430000000     0.049810000000     0.174880000000    -0.0435145  
C88      C      0.388450000000     0.058310000000     0.135470000000    -0.040552   
C89      C      0.471980000000     0.125770000000     0.379920000000    -0.0425933  
C90      C      0.503920000000     0.088960000000     0.358270000000    -0.0196122  
C91      C      0.490790000000     0.170340000000     0.396620000000     0.01573    
C92      C      0.499000000000     0.117800000000     0.370550000000     0.0164872  
C93      C      0.487950000000     0.196040000000     0.414860000000    -0.0185601  
C94      C      0.521770000000     0.136500000000     0.373980000000    -0.0412817  
C95      C      0.517630000000     0.162660000000     0.386620000000    -0.0412788  
C96      C      0.467950000000     0.151770000000     0.393060000000    -0.041169   
C97      C      0.537120000000     0.349580000000     0.333440000000    -0.0428198  
C98      C      0.512550000000     0.391310000000     0.311110000000    -0.0214007  
C99      C      0.517780000000     0.326450000000     0.374650000000     0.0171833  
C100     C      0.514550000000     0.368830000000     0.333390000000     0.0170872  
C101     C      0.519380000000     0.303900000000     0.396870000000    -0.0216728  
C102     C      0.493930000000     0.367080000000     0.354490000000    -0.0413141  
C103     C      0.495570000000     0.346100000000     0.374980000000    -0.0406621  
C104     C      0.538770000000     0.328610000000     0.353950000000    -0.0432201  
C105     C      0.480630000000     0.404330000000     0.149680000000    -0.0405604  
C106     C      0.484260000000     0.406720000000     0.202420000000    -0.0206299  
C107     C      0.482730000000     0.359750000000     0.124910000000     0.0171685  
C108     C      0.482340000000     0.390220000000     0.175480000000     0.0169536  
C109     C      0.484630000000     0.343500000000     0.097840000000    -0.0204408  
C110     C      0.482600000000     0.360680000000     0.175810000000    -0.0434319  
C111     C      0.482430000000     0.345560000000     0.150720000000    -0.0410637  
C112     C      0.481230000000     0.389250000000     0.124620000000    -0.042451   
C113     C      0.078400000000     0.128130000000     0.120310000000    -0.0455559  
C114     C      0.072390000000     0.166300000000     0.083940000000    -0.0233348  
C115     C      0.039290000000     0.113770000000     0.150120000000     0.0160843  
C116     C      0.061690000000     0.149610000000     0.108600000000     0.0208986  
C117     C      0.026510000000     0.092620000000     0.169980000000    -0.020319   
C118     C      0.033880000000     0.153370000000     0.118270000000    -0.0394498  
C119     C      0.022800000000     0.135660000000     0.138920000000    -0.0424219  
C120     C      0.067270000000     0.110340000000     0.140850000000    -0.0389249  
C121     C      0.084900000000     0.010430000000     0.722830000000     0.397685   
C122     C      0.521500000000     0.441580000000     0.809480000000     0.400279   
C123     C      0.090870000000     0.012210000000     0.810370000000     0.401531   
C124     C      0.506150000000     0.450750000000     0.717960000000     0.404049   
C125     C      0.459370000000     0.514770000000     0.728850000000     0.409415   
C126     C      0.025690000000     0.066360000000     0.817190000000     0.411259   
C127     C      0.040130000000     0.068530000000     0.714690000000     0.406708   
C128     C      0.470960000000     0.488560000000     0.829380000000     0.407443   
C129     C      0.058250000000     0.214420000000     0.569670000000     0.40611    
C130     C      0.467930000000     0.324160000000     0.985560000000     0.406682   
C131     C      0.021160000000     0.314290000000     0.573140000000     0.412666   
C132     C      0.463070000000     0.225100000000     0.025600000000     0.414464   
C133     C      0.502430000000     0.208780000000     0.963370000000     0.409455   
C134     C      0.087100000000     0.317960000000     0.516530000000     0.40025    
C135     C      0.090240000000     0.231790000000     0.510290000000     0.398954   
C136     C      0.522790000000     0.304580000000     0.949040000000     0.395815   
C137     C      0.323170000000     0.039170000000     0.578600000000     0.409556   
C138     C      0.217410000000     0.474690000000     0.011800000000     0.411164   
C139     C      0.212990000000     0.043280000000     0.571450000000     0.40713    
C140     C      0.325810000000     0.469660000000     0.010190000000     0.407296   
C141     C      0.318580000000     0.521520000000     0.957310000000     0.400107   
C142     C      0.228780000000     0.096340000000     0.522140000000     0.402147   
C143     C      0.317980000000     0.092080000000     0.526860000000     0.4028     
C144     C      0.234220000000     0.525750000000     0.951730000000     0.402346   
C145     C      0.398810000000     0.431060000000     0.984160000000    -0.0385971  
C146     C      0.370920000000     0.447810000000     0.025870000000    -0.0217686  
C147     C      0.430240000000     0.390570000000     0.986890000000     0.0201489  
C148     C      0.390730000000     0.427110000000     0.012140000000     0.0174112  
C149     C      0.453870000000     0.373280000000     0.974490000000    -0.0224093  
C150     C      0.402240000000     0.404490000000     0.027300000000    -0.0435852  
C151     C      0.421960000000     0.386460000000     0.014810000000    -0.0396237  
C152     C      0.418400000000     0.412980000000     0.971650000000    -0.0452502  
C153     C      0.357950000000     0.172600000000     0.058510000000    -0.0407567  
C154     C      0.320950000000     0.145160000000     0.031770000000    -0.0204714  
C155     C      0.388550000000     0.206310000000     0.035120000000     0.0195429  
C156     C      0.344600000000     0.166370000000     0.033010000000     0.0171889  
C157     C      0.411750000000     0.227980000000     0.036320000000    -0.0214799  
C158     C      0.353730000000     0.179880000000     0.008500000000    -0.0422775  
C159     C      0.375660000000     0.199580000000     0.009520000000    -0.0416638  
C160     C      0.379760000000     0.192450000000     0.059560000000    -0.0429629  
C161     C      0.124040000000     0.391250000000     0.027800000000    -0.0392485  
C162     C      0.107500000000     0.357690000000     0.989740000000    -0.0231866  
C163     C      0.152650000000     0.432080000000     0.016290000000     0.0163689  
C164     C      0.123540000000     0.383270000000     0.999460000000     0.0200482  
C165     C      0.169850000000     0.457210000000     0.025010000000    -0.0194518  
C166     C      0.136960000000     0.400430000000     0.979580000000    -0.0452093  
C167     C      0.151300000000     0.424680000000     0.987910000000    -0.0381635  
C168     C      0.138750000000     0.415320000000     0.036180000000    -0.0427729  
C169     C      0.207310000000     0.186950000000     0.502870000000    -0.0409683  
C170     C      0.224490000000     0.147140000000     0.533440000000    -0.0193471  
C171     C      0.164130000000     0.212630000000     0.513620000000     0.019998   
C172     C      0.203970000000     0.170610000000     0.527110000000     0.0156542  
C173     C      0.142680000000     0.235040000000     0.506590000000    -0.0231028  
C174     C      0.180550000000     0.175410000000     0.544560000000    -0.0406633  
C175     C      0.160830000000     0.196320000000     0.537910000000    -0.0404259  
C176     C      0.187540000000     0.207780000000     0.496150000000    -0.0447786  
C177     C      0.390250000000     0.008130000000     0.924550000000    -0.0420336  
C178     C      0.353630000000     0.046970000000     0.926590000000    -0.0244214  
C179     C      0.428230000000     0.008830000000     0.890210000000     0.0140837  
C180     C      0.379040000000     0.033110000000     0.913340000000     0.0217836  
C181     C      0.454890000000     0.996470000000     0.878000000000    -0.0191018  
C182     C      0.392760000000     0.045910000000     0.890560000000    -0.0470935  
C183     C      0.417150000000     0.033890000000     0.879140000000    -0.0379864  
C184     C      0.414540000000     0.995980000000     0.912960000000    -0.0399309  
C185     C      0.192850000000     0.517670000000     0.830800000000    -0.0426839  
C186     C      0.141710000000     0.524580000000     0.816440000000    -0.020831   
C187     C      0.206700000000     0.515490000000     0.879780000000     0.0166888  
C188     C      0.164360000000     0.521050000000     0.838500000000     0.0167777  
C189     C      0.229250000000     0.511810000000     0.901920000000    -0.0207234  
C190     C      0.157270000000     0.521730000000     0.867040000000    -0.041008   
C191     C      0.178110000000     0.518250000000     0.887420000000    -0.0407374  
C192     C      0.213840000000     0.514900000000     0.851260000000    -0.0429706  
C193     C      0.161440000000     0.494750000000     0.625470000000    -0.0397098  
C194     C      0.164310000000     0.531830000000     0.587890000000    -0.0211804  
C195     C      0.125680000000     0.496400000000     0.662040000000     0.0210927  
C196     C      0.151230000000     0.520070000000     0.614200000000     0.0161728  
C197     C      0.110820000000     0.482850000000     0.686510000000    -0.0236951  
C198     C      0.127840000000     0.035100000000     0.626550000000    -0.0418022  
C199     C      0.115120000000     0.023100000000     0.650140000000    -0.0411977  
C200     C      0.148790000000     0.483010000000     0.649190000000    -0.0457456  
C201     C      0.411590000000     0.055950000000     0.652890000000    -0.0426979  
C202     C      0.433940000000     0.051750000000     0.700660000000    -0.0215476  
C203     C      0.360690000000     0.052020000000     0.646170000000     0.0169272  
C204     C      0.408320000000     0.051760000000     0.681780000000     0.018228   
C205     C      0.335090000000     0.052400000000     0.627240000000    -0.0204315  
C206     C      0.380880000000     0.049000000000     0.692840000000    -0.040337   
C207     C      0.357320000000     0.048820000000     0.675170000000    -0.0436714  
C208     C      0.387980000000     0.056570000000     0.635330000000    -0.0406415  
C209     C      0.471340000000     0.123610000000     0.880920000000    -0.0424761  
C210     C      0.503950000000     0.087230000000     0.859530000000    -0.0196156  
C211     C      0.489460000000     0.168310000000     0.898010000000     0.0157758  
C212     C      0.498560000000     0.115960000000     0.871870000000     0.0164717  
C213     C      0.486080000000     0.193980000000     0.916190000000    -0.0186075  
C214     C      0.521090000000     0.134880000000     0.875650000000    -0.0412776  
C215     C      0.516510000000     0.160940000000     0.888330000000    -0.0411928  
C216     C      0.466860000000     0.149520000000     0.894090000000    -0.0412972  
C217     C      0.536120000000     0.348430000000     0.833820000000    -0.042812   
C218     C      0.511680000000     0.390200000000     0.811410000000    -0.0214324  
C219     C      0.516590000000     0.325290000000     0.874950000000     0.0171201  
C220     C      0.513560000000     0.367700000000     0.833690000000     0.0171693  
C221     C      0.518140000000     0.302800000000     0.897230000000    -0.0217454  
C222     C      0.492830000000     0.365930000000     0.854680000000    -0.0414619  
C223     C      0.494370000000     0.344940000000     0.875170000000    -0.0406189  
C224     C      0.537670000000     0.327450000000     0.854330000000    -0.0431978  
C225     C      0.481220000000     0.405340000000     0.649130000000    -0.0405558  
C226     C      0.483510000000     0.406480000000     0.701990000000    -0.0206422  
C227     C      0.483240000000     0.361280000000     0.623460000000     0.0171113  
C228     C      0.481760000000     0.390620000000     0.674660000000     0.0169568  
C229     C      0.486080000000     0.345590000000     0.596140000000    -0.0204922  
C230     C      0.481260000000     0.361090000000     0.674330000000    -0.0434304  
C231     C      0.481600000000     0.346530000000     0.648920000000    -0.0410983  
C232     C      0.482360000000     0.390800000000     0.623770000000    -0.0424922  
C233     C      0.077180000000     0.127570000000     0.620540000000    -0.0453698  
C234     C      0.070610000000     0.165690000000     0.584200000000    -0.0234031  
C235     C      0.038440000000     0.113120000000     0.650760000000     0.0161241  
C236     C      0.060300000000     0.149020000000     0.609030000000     0.0205441  
C237     C      0.025870000000     0.091870000000     0.670650000000    -0.0203506  
C238     C      0.032620000000     0.152770000000     0.619050000000    -0.0395829  
C239     C      0.021800000000     0.135030000000     0.639810000000    -0.042547   
C240     C      0.066320000000     0.109750000000     0.641200000000    -0.0390351  
C241     C      0.085120000000     0.510260000000     0.222680000000     0.397826   
C242     C      0.521290000000     0.942910000000     0.308740000000     0.400206   
C243     C      0.091010000000     0.513520000000     0.310990000000     0.402662   
C244     C      0.506080000000     0.952040000000     0.217130000000     0.403997   
C245     C      0.459250000000     0.016400000000     0.228270000000     0.408757   
C246     C      0.025780000000     0.567560000000     0.316200000000     0.411195   
C247     C      0.040800000000     0.568850000000     0.214330000000     0.40683    
C248     C      0.470830000000     0.990360000000     0.328450000000     0.407845   
C249     C      0.058300000000     0.714690000000     0.069480000000     0.40586    
C250     C      0.471220000000     0.826130000000     0.486890000000     0.407154   
C251     C      0.019990000000     0.813950000000     0.073260000000     0.412897   
C252     C      0.464610000000     0.724860000000     0.522820000000     0.413579   
C253     C      0.505230000000     0.710980000000     0.461410000000     0.409068   
C254     C      0.084430000000     0.819960000000     0.017190000000     0.401909   
C255     C      0.089390000000     0.731760000000     0.010160000000     0.399059   
C256     C      0.524930000000     0.805530000000     0.448170000000     0.396509   
C257     C      0.323950000000     0.540380000000     0.079270000000     0.409914   
C258     C      0.215680000000     0.974170000000     0.508610000000     0.411247   
C259     C      0.213740000000     0.543680000000     0.071760000000     0.407014   
C260     C      0.325020000000     0.969270000000     0.509740000000     0.4074     
C261     C      0.317690000000     0.021400000000     0.456600000000     0.400239   
C262     C      0.229490000000     0.597050000000     0.022470000000     0.402143   
C263     C      0.318340000000     0.592820000000     0.026520000000     0.402983   
C264     C      0.233250000000     0.025480000000     0.451160000000     0.402383   
C265     C      0.399510000000     0.931660000000     0.486240000000    -0.0393604  
C266     C      0.369570000000     0.947550000000     0.526890000000    -0.0222687  
C267     C      0.432250000000     0.892350000000     0.490370000000     0.0189078  
C268     C      0.390260000000     0.927300000000     0.513800000000     0.0181962  
C269     C      0.457010000000     0.875840000000     0.479160000000    -0.0222128  
C270     C      0.401760000000     0.904980000000     0.529390000000    -0.0441503  
C271     C      0.422680000000     0.887720000000     0.517790000000    -0.0393861  
C272     C      0.420330000000     0.914340000000     0.474610000000    -0.0445342  
C273     C      0.360850000000     0.672140000000     0.559750000000    -0.0412267  
C274     C      0.323100000000     0.642500000000     0.536580000000    -0.0200367  
C275     C      0.389840000000     0.704580000000     0.532840000000     0.0186074  
C276     C      0.346340000000     0.664180000000     0.535370000000     0.016477   
C277     C      0.412930000000     0.726370000000     0.531540000000    -0.0211501  
C278     C      0.353920000000     0.676350000000     0.509690000000    -0.0419158  
C279     C      0.375640000000     0.696260000000     0.508400000000    -0.0416927  
C280     C      0.382420000000     0.692240000000     0.558490000000    -0.0427322  
C281     C      0.132450000000     0.884770000000     0.525410000000    -0.038182   
C282     C      0.115240000000     0.850860000000     0.487270000000    -0.0223638  
C283     C      0.150950000000     0.930730000000     0.512660000000     0.0168034  
C284     C      0.126750000000     0.878840000000     0.497080000000     0.0210189  
C285     C      0.167640000000     0.956630000000     0.520030000000    -0.0192812  
C286     C      0.132440000000     0.899550000000     0.476880000000    -0.0447505  
C287     C      0.144470000000     0.925230000000     0.484580000000    -0.038569   
C288     C      0.144700000000     0.910430000000     0.533050000000    -0.0425815  
C289     C      0.207150000000     0.687600000000     0.003600000000    -0.0418448  
C290     C      0.224370000000     0.647730000000     0.034110000000    -0.0195004  
C291     C      0.163400000000     0.712570000000     0.013810000000     0.0194572  
C292     C      0.203600000000     0.670970000000     0.027630000000     0.0159803  
C293     C      0.141870000000     0.734900000000     0.006710000000    -0.0232114  
C294     C      0.179790000000     0.675270000000     0.044690000000    -0.0409613  
C295     C      0.159900000000     0.695980000000     0.037880000000    -0.0401405  
C296     C      0.187200000000     0.708230000000     0.996730000000    -0.0439091  
C297     C      0.391610000000     0.506000000000     0.425940000000    -0.0391972  
C298     C      0.355000000000     0.544720000000     0.429060000000    -0.0238963  
C299     C      0.428810000000     0.507030000000     0.390800000000     0.0171727  
C300     C      0.380090000000     0.531020000000     0.415120000000     0.0202711  
C301     C      0.455380000000     0.494910000000     0.378150000000    -0.02137    
C302     C      0.393200000000     0.543950000000     0.392080000000    -0.0457473  
C303     C      0.417380000000     0.532090000000     0.380070000000    -0.0392177  
C304     C      0.415690000000     0.494020000000     0.413780000000    -0.0432549  
C305     C      0.193170000000     0.017770000000     0.329630000000    -0.0426944  
C306     C      0.142190000000     0.024070000000     0.314560000000    -0.0207238  
C307     C      0.206430000000     0.015850000000     0.378780000000     0.0170539  
C308     C      0.164560000000     0.020970000000     0.336960000000     0.0165092  
C309     C      0.228740000000     0.012140000000     0.401160000000    -0.0217501  
C310     C      0.157120000000     0.021750000000     0.365420000000    -0.0407351  
C311     C      0.177730000000     0.018470000000     0.386070000000    -0.0410449  
C312     C      0.213930000000     0.015210000000     0.350360000000    -0.0432953  
C313     C      0.161540000000     0.997440000000     0.124100000000    -0.0381422  
C314     C      0.164620000000     0.035100000000     0.087030000000    -0.0208554  
C315     C      0.125600000000     0.998670000000     0.160510000000     0.0223239  
C316     C      0.151480000000     0.022980000000     0.113150000000     0.0149231  
C317     C      0.110630000000     0.984820000000     0.184740000000    -0.0237206  
C318     C      0.128820000000     0.534780000000     0.126700000000    -0.0424952  
C319     C      0.115850000000     0.522860000000     0.150190000000    -0.0397986  
C320     C      0.148740000000     0.985400000000     0.147590000000    -0.0465671  
C321     C      0.411710000000     0.557690000000     0.154410000000    -0.0426494  
C322     C      0.433590000000     0.552830000000     0.202370000000    -0.0218649  
C323     C      0.360940000000     0.553360000000     0.147130000000     0.0170367  
C324     C      0.408200000000     0.552920000000     0.183180000000     0.0187591  
C325     C      0.335550000000     0.553830000000     0.127920000000    -0.0203474  
C326     C      0.380690000000     0.549600000000     0.193920000000    -0.0403146  
C327     C      0.357310000000     0.549520000000     0.176010000000    -0.0435222  
C328     C      0.388270000000     0.558390000000     0.136630000000    -0.0405733  
C329     C      0.472000000000     0.626570000000     0.379520000000    -0.0425942  
C330     C      0.503490000000     0.589470000000     0.357710000000    -0.0197603  
C331     C      0.491250000000     0.671110000000     0.395830000000     0.0158126  
C332     C      0.498870000000     0.618420000000     0.369870000000     0.0165146  
C333     C      0.488770000000     0.696870000000     0.414030000000    -0.0185722  
C334     C      0.521770000000     0.637020000000     0.372950000000    -0.0411647  
C335     C      0.517920000000     0.663260000000     0.385520000000    -0.0414858  
C336     C      0.468260000000     0.652650000000     0.392610000000    -0.0411887  
C337     C      0.535930000000     0.849690000000     0.332810000000    -0.0427727  
C338     C      0.511220000000     0.891590000000     0.310940000000    -0.0213317  
C339     C      0.517190000000     0.826650000000     0.374350000000     0.0172432  
C340     C      0.513460000000     0.869050000000     0.333150000000     0.0170842  
C341     C      0.519030000000     0.804030000000     0.396490000000    -0.021718   
C342     C      0.493200000000     0.867400000000     0.354590000000    -0.0413227  
C343     C      0.495080000000     0.846400000000     0.375050000000    -0.0406478  
C344     C      0.537830000000     0.828710000000     0.353290000000    -0.0432417  
C345     C      0.480970000000     0.905370000000     0.148950000000    -0.0405263  
C346     C      0.483930000000     0.907310000000     0.201760000000    -0.0206005  
C347     C      0.483060000000     0.860960000000     0.123870000000     0.0171695  
C348     C      0.482140000000     0.891040000000     0.174670000000     0.0169185  
C349     C      0.485340000000     0.844910000000     0.096710000000    -0.0205208  
C350     C      0.482090000000     0.861490000000     0.174770000000    -0.0433826  
C351     C      0.482160000000     0.846570000000     0.149560000000    -0.0411371  
C352     C      0.481830000000     0.890480000000     0.123780000000    -0.04249    
C353     C      0.078030000000     0.628060000000     0.120380000000    -0.0454591  
C354     C      0.071590000000     0.666220000000     0.084070000000    -0.0232605  
C355     C      0.039190000000     0.613520000000     0.150440000000     0.0161431  
C356     C      0.061170000000     0.649500000000     0.108820000000     0.0207057  
C357     C      0.026600000000     0.592270000000     0.170310000000    -0.0203828  
C358     C      0.033420000000     0.653170000000     0.118710000000    -0.039498   
C359     C      0.022550000000     0.635390000000     0.139410000000    -0.0424967  
C360     C      0.067110000000     0.610200000000     0.140970000000    -0.038948   
C361     C      0.085050000000     0.509670000000     0.723370000000     0.397835   
C362     C      0.520830000000     0.941770000000     0.809010000000     0.400111   
C363     C      0.090870000000     0.512640000000     0.811270000000     0.402586   
C364     C      0.505990000000     0.951250000000     0.717570000000     0.403826   
C365     C      0.459280000000     0.015350000000     0.728290000000     0.408603   
C366     C      0.025510000000     0.566380000000     0.817070000000     0.411182   
C367     C      0.040290000000     0.568080000000     0.714910000000     0.406827   
C368     C      0.470730000000     0.989480000000     0.828920000000     0.407668   
C369     C      0.057770000000     0.714290000000     0.569730000000     0.406152   
C370     C      0.468740000000     0.824680000000     0.985730000000     0.406686   
C371     C      0.021500000000     0.814830000000     0.572720000000     0.412793   
C372     C      0.463600000000     0.724950000000     0.024940000000     0.413943   
C373     C      0.503310000000     0.709420000000     0.962660000000     0.409234   
C374     C      0.087980000000     0.817380000000     0.516750000000     0.400438   
C375     C      0.090810000000     0.731830000000     0.510900000000     0.398493   
C376     C      0.523070000000     0.804680000000     0.948540000000     0.395956   
C377     C      0.323250000000     0.538790000000     0.579760000000     0.409604   
C378     C      0.217620000000     0.974670000000     0.011500000000     0.410891   
C379     C      0.213120000000     0.542560000000     0.572090000000     0.407235   
C380     C      0.326090000000     0.970470000000     0.009070000000     0.407039   
C381     C      0.317870000000     0.022350000000     0.956100000000     0.399683   
C382     C      0.229230000000     0.596180000000     0.523090000000     0.402185   
C383     C      0.318410000000     0.591370000000     0.527930000000     0.40295    
C384     C      0.233500000000     0.025520000000     0.951150000000     0.402204   
C385     C      0.399640000000     0.931770000000     0.983440000000    -0.0387145  
C386     C      0.371400000000     0.949060000000     0.024690000000    -0.0217848  
C387     C      0.431040000000     0.891330000000     0.986970000000     0.0199931  
C388     C      0.391270000000     0.928140000000     0.011370000000     0.0174499  
C389     C      0.454860000000     0.873930000000     0.975080000000    -0.0224979  
C390     C      0.402570000000     0.905680000000     0.026900000000    -0.0435675  
C391     C      0.422420000000     0.887510000000     0.014830000000    -0.0397368  
C392     C      0.419370000000     0.913550000000     0.971350000000    -0.0451417  
C393     C      0.358830000000     0.672260000000     0.059000000000    -0.0407567  
C394     C      0.321570000000     0.644400000000     0.033030000000    -0.0203569  
C395     C      0.389070000000     0.705730000000     0.034840000000     0.0193991  
C396     C      0.345160000000     0.665710000000     0.033740000000     0.0170339  
C397     C      0.412250000000     0.727460000000     0.035510000000    -0.0214821  
C398     C      0.353940000000     0.678960000000     0.008970000000    -0.042309   
C399     C      0.375850000000     0.698710000000     0.009490000000    -0.0417145  
C400     C      0.380610000000     0.692160000000     0.059550000000    -0.0429693  
C401     C      0.125080000000     0.890430000000     0.027620000000    -0.0391311  
C402     C      0.108920000000     0.856730000000     0.989460000000    -0.0232289  
C403     C      0.153210000000     0.931600000000     0.016140000000     0.0165925  
C404     C      0.124600000000     0.882510000000     0.999250000000     0.0201407  
C405     C      0.170230000000     0.956850000000     0.024890000000    -0.0197326  
C406     C      0.137750000000     0.899890000000     0.979400000000    -0.0451511  
C407     C      0.151850000000     0.924270000000     0.987750000000    -0.0381662  
C408     C      0.139560000000     0.914640000000     0.036020000000    -0.0428256  
C409     C      0.207990000000     0.687000000000     0.504370000000    -0.0409825  
C410     C      0.224940000000     0.646910000000     0.534710000000    -0.0193693  
C411     C      0.164700000000     0.712550000000     0.515000000000     0.0199519  
C412     C      0.204460000000     0.670430000000     0.528430000000     0.0156847  
C413     C      0.143310000000     0.735020000000     0.508020000000    -0.0231341  
C414     C      0.180880000000     0.675040000000     0.545720000000    -0.0406532  
C415     C      0.161200000000     0.696000000000     0.539100000000    -0.0403949  
C416     C      0.188260000000     0.707880000000     0.497680000000    -0.044764   
C417     C      0.391210000000     0.506490000000     0.925760000000    -0.0391869  
C418     C      0.354990000000     0.545660000000     0.928190000000    -0.0240678  
C419     C      0.428860000000     0.506910000000     0.891080000000     0.0172534  
C420     C      0.380160000000     0.531620000000     0.914710000000     0.0205753  
C421     C      0.455300000000     0.494280000000     0.878670000000    -0.0215456  
C422     C      0.393770000000     0.544340000000     0.891850000000    -0.0459328  
C423     C      0.417950000000     0.532110000000     0.880170000000    -0.0392009  
C424     C      0.415270000000     0.494140000000     0.913930000000    -0.043248   
C425     C      0.193000000000     0.017030000000     0.829860000000    -0.0428236  
C426     C      0.141990000000     0.023280000000     0.814850000000    -0.0206416  
C427     C      0.206300000000     0.015030000000     0.879010000000     0.0168532  
C428     C      0.164390000000     0.020150000000     0.837230000000     0.0165609  
C429     C      0.228620000000     0.011440000000     0.901390000000    -0.0215832  
C430     C      0.156960000000     0.020840000000     0.865690000000    -0.0408212  
C431     C      0.177600000000     0.017580000000     0.886320000000    -0.0409946  
C432     C      0.213780000000     0.014480000000     0.850580000000    -0.0431332  
C433     C      0.161200000000     0.996390000000     0.624690000000    -0.0380592  
C434     C      0.163940000000     0.033800000000     0.587360000000    -0.0209017  
C435     C      0.125440000000     0.997710000000     0.661270000000     0.0224493  
C436     C      0.150900000000     0.021750000000     0.613560000000     0.0150264  
C437     C      0.110720000000     0.983980000000     0.685720000000    -0.0237033  
C438     C      0.128240000000     0.533600000000     0.627120000000    -0.0424693  
C439     C      0.115470000000     0.521770000000     0.650770000000    -0.039767   
C440     C      0.148600000000     0.984480000000     0.648350000000    -0.0464657  
C441     C      0.411520000000     0.556040000000     0.654080000000    -0.0426751  
C442     C      0.433830000000     0.551480000000     0.701890000000    -0.0217269  
C443     C      0.360650000000     0.551970000000     0.647320000000     0.0169875  
C444     C      0.408250000000     0.551640000000     0.682950000000     0.0185292  
C445     C      0.335080000000     0.552300000000     0.628350000000    -0.0204155  
C446     C      0.380820000000     0.548710000000     0.693980000000    -0.0402951  
C447     C      0.357270000000     0.548570000000     0.676290000000    -0.04358    
C448     C      0.387920000000     0.556690000000     0.636520000000    -0.0405817  
C449     C      0.471340000000     0.624370000000     0.880590000000    -0.0424794  
C450     C      0.503500000000     0.587680000000     0.859040000000    -0.0196156  
C451     C      0.489910000000     0.669030000000     0.897300000000     0.0158322  
C452     C      0.498420000000     0.616520000000     0.871270000000     0.0164484  
C453     C      0.486890000000     0.694780000000     0.915450000000    -0.0185796  
C454     C      0.521090000000     0.635330000000     0.874730000000    -0.0411872  
C455     C      0.516800000000     0.661480000000     0.887340000000    -0.0413632  
C456     C      0.467160000000     0.650360000000     0.893710000000    -0.0412915  
C457     C      0.534890000000     0.848570000000     0.833120000000    -0.042747   
C458     C      0.510340000000     0.890520000000     0.811190000000    -0.0213833  
C459     C      0.515970000000     0.825520000000     0.874570000000     0.0171305  
C460     C      0.512430000000     0.867950000000     0.833380000000     0.0171339  
C461     C      0.517760000000     0.802970000000     0.896790000000    -0.0216104  
C462     C      0.492070000000     0.866280000000     0.854720000000    -0.0414141  
C463     C      0.493850000000     0.845270000000     0.875170000000    -0.0405857  
C464     C      0.536690000000     0.827570000000     0.853600000000    -0.0432151  
C465     C      0.481570000000     0.906460000000     0.648270000000    -0.0404728  
C466     C      0.483120000000     0.907240000000     0.701170000000    -0.0206536  
C467     C      0.483520000000     0.862550000000     0.622350000000     0.0169562  
C468     C      0.481530000000     0.891590000000     0.673710000000     0.0169736  
C469     C      0.486740000000     0.847000000000     0.594990000000    -0.0202597  
C470     C      0.480650000000     0.862060000000     0.673180000000    -0.0434926  
C471     C      0.481230000000     0.847670000000     0.647680000000    -0.0409605  
C472     C      0.482960000000     0.892080000000     0.622840000000    -0.0424526  
C473     C      0.076640000000     0.627350000000     0.620520000000    -0.0453199  
C474     C      0.069610000000     0.665460000000     0.584250000000    -0.0232679  
C475     C      0.038180000000     0.612720000000     0.651010000000     0.0161986  
C476     C      0.059580000000     0.648740000000     0.609170000000     0.0203869  
C477     C      0.025830000000     0.591380000000     0.670930000000    -0.0204685  
C478     C      0.031970000000     0.652400000000     0.619410000000    -0.039701   
C479     C      0.021380000000     0.634590000000     0.640230000000    -0.042577   
C480     C      0.066000000000     0.609460000000     0.641240000000    -0.0390863  
C481     C      0.584850000000     0.011010000000     0.222240000000     0.397627   
C482     C      0.022430000000     0.442800000000     0.308900000000     0.399953   
C483     C      0.591140000000     0.012650000000     0.309970000000     0.401533   
C484     C      0.006050000000     0.451710000000     0.216870000000     0.404527   
C485     C      0.959410000000     0.515630000000     0.228550000000     0.409838   
C486     C      0.527170000000     0.067420000000     0.317200000000     0.411487   
C487     C      0.540160000000     0.069420000000     0.214540000000     0.406301   
C488     C      0.971180000000     0.488980000000     0.328590000000     0.407406   
C489     C      0.558390000000     0.214890000000     0.069910000000     0.405896   
C490     C      0.969630000000     0.324950000000     0.486310000000     0.406629   
C491     C      0.520360000000     0.314340000000     0.073230000000     0.413247   
C492     C      0.964310000000     0.224380000000     0.522980000000     0.413659   
C493     C      0.005050000000     0.210210000000     0.461550000000     0.408928   
C494     C      0.584770000000     0.319320000000     0.016480000000     0.40118    
C495     C      0.588750000000     0.231360000000     0.010100000000     0.398763   
C496     C      0.024450000000     0.305790000000     0.448860000000     0.396002   
C497     C      0.823590000000     0.039840000000     0.078170000000     0.409813   
C498     C      0.714950000000     0.473700000000     0.508070000000     0.411201   
C499     C      0.713360000000     0.043740000000     0.071030000000     0.406906   
C500     C      0.824090000000     0.467320000000     0.511130000000     0.407564   
C501     C      0.818490000000     0.519530000000     0.457900000000     0.400185   
C502     C      0.728920000000     0.096430000000     0.021460000000     0.402202   
C503     C      0.817890000000     0.092380000000     0.025350000000     0.402943   
C504     C      0.733950000000     0.525180000000     0.451530000000     0.402402   
C505     C      0.897570000000     0.430000000000     0.487110000000    -0.0391627  
C506     C      0.868160000000     0.444740000000     0.528560000000    -0.0222679  
C507     C      0.930360000000     0.390580000000     0.489680000000     0.0193027  
C508     C      0.888820000000     0.424960000000     0.514710000000     0.0183116  
C509     C      0.954870000000     0.374350000000     0.477560000000    -0.0223752  
C510     C      0.900670000000     0.402320000000     0.529580000000    -0.0442245  
C511     C      0.921380000000     0.385360000000     0.517200000000    -0.0391381  
C512     C      0.918160000000     0.412970000000     0.474690000000    -0.0447065  
C513     C      0.860310000000     0.171560000000     0.559130000000    -0.0412129  
C514     C      0.822720000000     0.142120000000     0.535480000000    -0.0201049  
C515     C      0.889570000000     0.204120000000     0.532650000000     0.0187824  
C516     C      0.846040000000     0.163710000000     0.534580000000     0.0165178  
C517     C      0.912620000000     0.225970000000     0.531690000000    -0.0213396  
C518     C      0.853900000000     0.175990000000     0.509020000000    -0.0418792  
C519     C      0.875630000000     0.195900000000     0.508030000000    -0.0417173  
C520     C      0.881900000000     0.191660000000     0.558180000000    -0.0428671  
C521     C      0.632930000000     0.384140000000     0.524650000000    -0.0381784  
C522     C      0.615620000000     0.350020000000     0.486730000000    -0.0221192  
C523     C      0.649810000000     0.430660000000     0.511730000000     0.0165718  
C524     C      0.626350000000     0.378330000000     0.496480000000     0.0212994  
C525     C      0.666560000000     0.456620000000     0.518740000000    -0.0189689  
C526     C      0.630760000000     0.399380000000     0.476320000000    -0.0446918  
C527     C      0.642450000000     0.425270000000     0.483840000000    -0.0385731  
C528     C      0.644780000000     0.410030000000     0.532130000000    -0.0424487  
C529     C      0.706340000000     0.186850000000     0.002220000000    -0.0417409  
C530     C      0.723920000000     0.147190000000     0.032790000000    -0.0195091  
C531     C      0.662750000000     0.211930000000     0.012790000000     0.0195456  
C532     C      0.703080000000     0.170380000000     0.026390000000     0.015897   
C533     C      0.641180000000     0.234270000000     0.005830000000    -0.0235046  
C534     C      0.679480000000     0.174810000000     0.043700000000    -0.040892   
C535     C      0.659520000000     0.195490000000     0.037000000000    -0.0402446  
C536     C      0.686340000000     0.207460000000     0.995460000000    -0.0440452  
C537     C      0.890970000000     0.006780000000     0.424820000000    -0.0420855  
C538     C      0.854080000000     0.045250000000     0.427870000000    -0.0243945  
C539     C      0.928360000000     0.008140000000     0.389870000000     0.0142419  
C540     C      0.879310000000     0.031710000000     0.413970000000     0.021494   
C541     C      0.955130000000     0.996320000000     0.377360000000    -0.0192552  
C542     C      0.892430000000     0.044760000000     0.391000000000    -0.0469308  
C543     C      0.916760000000     0.033090000000     0.379090000000    -0.0380579  
C544     C      0.915210000000     0.994990000000     0.412770000000    -0.0400605  
C545     C      0.693210000000     0.517620000000     0.330310000000    -0.0425875  
C546     C      0.642100000000     0.524430000000     0.315850000000    -0.0207845  
C547     C      0.707020000000     0.515750000000     0.379310000000     0.0169799  
C548     C      0.664710000000     0.521020000000     0.337960000000     0.0167189  
C549     C      0.729570000000     0.512080000000     0.401450000000    -0.0209319  
C550     C      0.657590000000     0.521870000000     0.366490000000    -0.040891   
C551     C      0.678410000000     0.518520000000     0.386920000000    -0.0408527  
C552     C      0.714190000000     0.514990000000     0.350810000000    -0.043203   
C553     C      0.661310000000     0.495110000000     0.124750000000    -0.0398805  
C554     C      0.664620000000     0.532310000000     0.087310000000    -0.0212612  
C555     C      0.625420000000     0.496940000000     0.161190000000     0.0209115  
C556     C      0.651410000000     0.520600000000     0.113570000000     0.0161473  
C557     C      0.610300000000     0.483410000000     0.185520000000    -0.0236975  
C558     C      0.628120000000     0.035910000000     0.126020000000    -0.0418481  
C559     C      0.615220000000     0.023890000000     0.149500000000    -0.0412067  
C560     C      0.648450000000     0.483390000000     0.148360000000    -0.0457206  
C561     C      0.911600000000     0.057000000000     0.153030000000    -0.04269    
C562     C      0.933630000000     0.052700000000     0.200930000000    -0.0216612  
C563     C      0.860790000000     0.052780000000     0.145940000000     0.0169624  
C564     C      0.908160000000     0.052550000000     0.181860000000     0.0184732  
C565     C      0.835320000000     0.053210000000     0.126830000000    -0.0203741  
C566     C      0.880670000000     0.049430000000     0.192710000000    -0.0404067  
C567     C      0.857240000000     0.049240000000     0.174870000000    -0.0435813  
C568     C      0.888110000000     0.057600000000     0.135310000000    -0.0406018  
C569     C      0.970600000000     0.126470000000     0.379000000000    -0.042681   
C570     C      0.001170000000     0.089000000000     0.356550000000    -0.0196125  
C571     C      0.990870000000     0.170280000000     0.396010000000     0.0158843  
C572     C      0.997300000000     0.117780000000     0.369380000000     0.0162498  
C573     C      0.988800000000     0.196140000000     0.414130000000    -0.0186412  
C574     C      0.020680000000     0.135700000000     0.372940000000    -0.0409278  
C575     C      0.017420000000     0.161850000000     0.385850000000    -0.0415525  
C576     C      0.967450000000     0.152450000000     0.392420000000    -0.0411969  
C577     C      0.038020000000     0.349850000000     0.333650000000    -0.0429237  
C578     C      0.013380000000     0.391280000000     0.310860000000    -0.0215478  
C579     C      0.018390000000     0.326760000000     0.374760000000     0.0170837  
C580     C      0.015310000000     0.368930000000     0.333280000000     0.0172239  
C581     C      0.019880000000     0.304280000000     0.397060000000    -0.0215959  
C582     C      0.994470000000     0.367120000000     0.354160000000    -0.0413967  
C583     C      0.996030000000     0.346240000000     0.374750000000    -0.0406542  
C584     C      0.039600000000     0.328980000000     0.354280000000    -0.0431701  
C585     C      0.980120000000     0.403180000000     0.149610000000    -0.0405226  
C586     C      0.984230000000     0.406600000000     0.202270000000    -0.0204851  
C587     C      0.982000000000     0.358100000000     0.125680000000     0.0175681  
C588     C      0.982300000000     0.389590000000     0.175650000000     0.0168753  
C589     C      0.983320000000     0.341250000000     0.098940000000    -0.0207743  
C590     C      0.982840000000     0.360060000000     0.176540000000    -0.0432656  
C591     C      0.982340000000     0.344450000000     0.151770000000    -0.0410279  
C592     C      0.980370000000     0.387600000000     0.124830000000    -0.0424129  
C593     C      0.577750000000     0.128250000000     0.120860000000    -0.045509   
C594     C      0.571890000000     0.166470000000     0.084530000000    -0.0232732  
C595     C      0.538630000000     0.114080000000     0.150730000000     0.0161491  
C596     C      0.561140000000     0.149820000000     0.109190000000     0.020834   
C597     C      0.525790000000     0.093020000000     0.170640000000    -0.0203649  
C598     C      0.533360000000     0.153720000000     0.118900000000    -0.0394098  
C599     C      0.522220000000     0.136050000000     0.139560000000    -0.0425114  
C600     C      0.566570000000     0.110510000000     0.141410000000    -0.0389207  
C601     C      0.584880000000     0.010390000000     0.722930000000     0.3978     
C602     C      0.022000000000     0.441730000000     0.809200000000     0.400271   
C603     C      0.591100000000     0.011570000000     0.810300000000     0.401736   
C604     C      0.006030000000     0.450880000000     0.717300000000     0.404266   
C605     C      0.959340000000     0.514570000000     0.728600000000     0.409665   
C606     C      0.527130000000     0.066150000000     0.818200000000     0.411067   
C607     C      0.539770000000     0.068620000000     0.715240000000     0.406743   
C608     C      0.971000000000     0.488110000000     0.829010000000     0.407424   
C609     C      0.557700000000     0.214540000000     0.570210000000     0.406408   
C610     C      0.967230000000     0.323540000000     0.985220000000     0.406314   
C611     C      0.521740000000     0.315350000000     0.572750000000     0.412954   
C612     C      0.963190000000     0.224380000000     0.024890000000     0.414523   
C613     C      0.003210000000     0.208820000000     0.962600000000     0.409278   
C614     C      0.588130000000     0.317050000000     0.516570000000     0.40033    
C615     C      0.590110000000     0.231570000000     0.510970000000     0.398711   
C616     C      0.022700000000     0.304950000000     0.949350000000     0.395452   
C617     C      0.822750000000     0.038190000000     0.578650000000     0.409422   
C618     C      0.716690000000     0.474040000000     0.011010000000     0.411038   
C619     C      0.712750000000     0.042590000000     0.571240000000     0.407255   
C620     C      0.825280000000     0.468510000000     0.010600000000     0.407165   
C621     C      0.818500000000     0.520290000000     0.957420000000     0.400099   
C622     C      0.728620000000     0.095650000000     0.522020000000     0.40228    
C623     C      0.818050000000     0.090980000000     0.526830000000     0.402751   
C624     C      0.734240000000     0.524950000000     0.951570000000     0.402277   
C625     C      0.897900000000     0.430150000000     0.984410000000    -0.0385369  
C626     C      0.870260000000     0.446460000000     0.026440000000    -0.0219046  
C627     C      0.929400000000     0.389680000000     0.986550000000     0.0204136  
C628     C      0.890060000000     0.425950000000     0.012410000000     0.0175529  
C629     C      0.952930000000     0.372510000000     0.973790000000    -0.0225681  
C630     C      0.901760000000     0.403250000000     0.027310000000    -0.0436249  
C631     C      0.921400000000     0.385350000000     0.014510000000    -0.0395206  
C632     C      0.917410000000     0.412200000000     0.971590000000    -0.045331   
C633     C      0.858210000000     0.171610000000     0.058160000000    -0.0407704  
C634     C      0.821090000000     0.143990000000     0.031760000000    -0.0204882  
C635     C      0.888680000000     0.205190000000     0.034420000000     0.0194529  
C636     C      0.844750000000     0.165210000000     0.032760000000     0.0171307  
C637     C      0.911820000000     0.226930000000     0.035400000000    -0.0214953  
C638     C      0.853770000000     0.178560000000     0.008120000000    -0.0422922  
C639     C      0.875690000000     0.198280000000     0.008920000000    -0.0416984  
C640     C      0.880000000000     0.191490000000     0.058990000000    -0.0429754  
C641     C      0.625200000000     0.389340000000     0.026190000000    -0.0390333  
C642     C      0.609550000000     0.355340000000     0.987960000000    -0.0233247  
C643     C      0.651770000000     0.431470000000     0.014490000000     0.0163494  
C644     C      0.624320000000     0.381670000000     0.997750000000     0.0204548  
C645     C      0.668750000000     0.456780000000     0.023140000000    -0.0193936  
C646     C      0.636430000000     0.399670000000     0.977790000000    -0.0452913  
C647     C      0.649980000000     0.424380000000     0.986070000000    -0.0380863  
C648     C      0.639130000000     0.413900000000     0.034500000000    -0.0426695  
C649     C      0.707120000000     0.186400000000     0.503050000000    -0.0410454  
C650     C      0.724480000000     0.146450000000     0.533360000000    -0.019402   
C651     C      0.664010000000     0.212030000000     0.514170000000     0.019906   
C652     C      0.703900000000     0.169930000000     0.527230000000     0.0156971  
C653     C      0.642570000000     0.234530000000     0.507420000000    -0.0231288  
C654     C      0.680570000000     0.174630000000     0.544810000000    -0.040723   
C655     C      0.660820000000     0.195580000000     0.538370000000    -0.0404004  
C656     C      0.687320000000     0.207270000000     0.496550000000    -0.044764   
C657     C      0.890290000000     0.006910000000     0.924460000000    -0.0419528  
C658     C      0.853600000000     0.045670000000     0.926800000000    -0.0244391  
C659     C      0.928100000000     0.007810000000     0.889950000000     0.0142219  
C660     C      0.878950000000     0.031880000000     0.913350000000     0.0216574  
C661     C      0.954820000000     0.995620000000     0.877690000000    -0.0191622  
C662     C      0.892500000000     0.044750000000     0.890520000000    -0.0470456  
C663     C      0.916880000000     0.032830000000     0.878960000000    -0.037998   
C664     C      0.914570000000     0.994870000000     0.912750000000    -0.0400662  
C665     C      0.693160000000     0.516660000000     0.830570000000    -0.0427207  
C666     C      0.642040000000     0.523490000000     0.816130000000    -0.0207776  
C667     C      0.706960000000     0.514620000000     0.879570000000     0.0167303  
C668     C      0.664660000000     0.520010000000     0.838230000000     0.0167673  
C669     C      0.729490000000     0.511020000000     0.901740000000    -0.0207473  
C670     C      0.657530000000     0.520750000000     0.866760000000    -0.0409733  
C671     C      0.678350000000     0.517350000000     0.887180000000    -0.040783   
C672     C      0.714130000000     0.513970000000     0.851070000000    -0.0430148  
C673     C      0.661150000000     0.494230000000     0.625380000000    -0.0397165  
C674     C      0.664080000000     0.531180000000     0.587680000000    -0.0211926  
C675     C      0.625430000000     0.496100000000     0.661980000000     0.0209803  
C676     C      0.650980000000     0.519530000000     0.614020000000     0.0162045  
C677     C      0.610570000000     0.482670000000     0.686520000000    -0.0236694  
C678     C      0.627630000000     0.034660000000     0.626390000000    -0.0417663  
C679     C      0.614930000000     0.022780000000     0.650040000000    -0.0411475  
C680     C      0.648510000000     0.482620000000     0.649160000000    -0.0456842  
C681     C      0.911140000000     0.055360000000     0.652750000000    -0.0426629  
C682     C      0.933620000000     0.051360000000     0.700480000000    -0.0215111  
C683     C      0.860230000000     0.051290000000     0.646180000000     0.0169654  
C684     C      0.907960000000     0.051260000000     0.681660000000     0.0182123  
C685     C      0.834580000000     0.051550000000     0.627300000000    -0.0205854  
C686     C      0.880550000000     0.048450000000     0.692800000000    -0.0403769  
C687     C      0.856950000000     0.048160000000     0.675190000000    -0.0436856  
C688     C      0.887480000000     0.055880000000     0.635250000000    -0.0406237  
C689     C      0.969780000000     0.124570000000     0.879870000000    -0.0426138  
C690     C      0.000920000000     0.087440000000     0.857610000000    -0.0195581  
C691     C      0.989500000000     0.168490000000     0.897220000000     0.0158989  
C692     C      0.996660000000     0.116130000000     0.870510000000     0.0162227  
C693     C      0.986990000000     0.194320000000     0.915310000000    -0.0186791  
C694     C      0.019850000000     0.134230000000     0.874370000000    -0.0409673  
C695     C      0.016230000000     0.160300000000     0.887330000000    -0.041454   
C696     C      0.966260000000     0.150480000000     0.893320000000    -0.0412807  
C697     C      0.037180000000     0.348840000000     0.834110000000    -0.0428444  
C698     C      0.012600000000     0.390260000000     0.811220000000    -0.0215558  
C699     C      0.017410000000     0.325740000000     0.875140000000     0.01707    
C700     C      0.014450000000     0.367910000000     0.833640000000     0.0172278  
C701     C      0.018850000000     0.303290000000     0.897490000000    -0.0216265  
C702     C      0.993530000000     0.366080000000     0.854440000000    -0.0414874  
C703     C      0.995020000000     0.345200000000     0.875040000000    -0.0406448  
C704     C      0.038690000000     0.327970000000     0.854740000000    -0.0432146  
C705     C      0.980730000000     0.403980000000     0.649030000000    -0.040598   
C706     C      0.983670000000     0.406310000000     0.701830000000    -0.0206691  
C707     C      0.982610000000     0.359360000000     0.624290000000     0.0174375  
C708     C      0.981920000000     0.389850000000     0.674850000000     0.0169804  
C709     C      0.984760000000     0.343010000000     0.597290000000    -0.0206894  
C710     C      0.981820000000     0.360310000000     0.675180000000    -0.0433384  
C711     C      0.981790000000     0.345190000000     0.650100000000    -0.0410843  
C712     C      0.981480000000     0.388890000000     0.623970000000    -0.0423838  
C713     C      0.576270000000     0.127610000000     0.621100000000    -0.0453532  
C714     C      0.569710000000     0.165760000000     0.584780000000    -0.0232674  
C715     C      0.537600000000     0.113340000000     0.651490000000     0.0161292  
C716     C      0.559430000000     0.149120000000     0.609650000000     0.020438   
C717     C      0.525040000000     0.092180000000     0.671460000000    -0.0203848  
C718     C      0.531800000000     0.152990000000     0.619770000000    -0.0396105  
C719     C      0.521000000000     0.135300000000     0.640580000000    -0.0425848  
C720     C      0.565420000000     0.109850000000     0.641800000000    -0.0389463  
C721     C      0.584950000000     0.510180000000     0.222710000000     0.397908   
C722     C      0.021740000000     0.942930000000     0.308500000000     0.40014    
C723     C      0.591130000000     0.513000000000     0.310920000000     0.402439   
C724     C      0.005900000000     0.952030000000     0.216630000000     0.404149   
C725     C      0.959310000000     0.016120000000     0.228030000000     0.409063   
C726     C      0.526980000000     0.567480000000     0.316990000000     0.411201   
C727     C      0.540400000000     0.568990000000     0.214800000000     0.406713   
C728     C      0.970960000000     0.989910000000     0.328220000000     0.407475   
C729     C      0.557990000000     0.714880000000     0.069980000000     0.406225   
C730     C      0.970270000000     0.825310000000     0.486560000000     0.406871   
C731     C      0.520920000000     0.815060000000     0.072700000000     0.413252   
C732     C      0.964760000000     0.724130000000     0.522390000000     0.413407   
C733     C      0.005840000000     0.710770000000     0.460890000000     0.408675   
C734     C      0.585900000000     0.818660000000     0.016340000000     0.400977   
C735     C      0.589440000000     0.731460000000     0.010640000000     0.398976   
C736     C      0.024630000000     0.805820000000     0.448470000000     0.396444   
C737     C      0.823690000000     0.539490000000     0.079290000000     0.410093   
C738     C      0.714930000000     0.973690000000     0.507110000000     0.410959   
C739     C      0.713480000000     0.542920000000     0.071610000000     0.406966   
C740     C      0.824220000000     0.968080000000     0.509950000000     0.407272   
C741     C      0.817810000000     0.020550000000     0.456670000000     0.400068   
C742     C      0.729370000000     0.596270000000     0.022410000000     0.401936   
C743     C      0.818260000000     0.591760000000     0.026470000000     0.402881   
C744     C      0.733200000000     0.025180000000     0.450830000000     0.402147   
C745     C      0.898210000000     0.930540000000     0.486460000000    -0.0391742  
C746     C      0.868400000000     0.945820000000     0.527440000000    -0.0222346  
C747     C      0.930960000000     0.891170000000     0.489880000000     0.0191218  
C748     C      0.889110000000     0.925810000000     0.514010000000     0.0182173  
C749     C      0.955660000000     0.874830000000     0.478290000000    -0.0222945  
C750     C      0.900730000000     0.903310000000     0.529250000000    -0.0440987  
C751     C      0.921580000000     0.886200000000     0.517320000000    -0.0393333  
C752     C      0.918950000000     0.913380000000     0.474490000000    -0.0445893  
C753     C      0.861130000000     0.671170000000     0.559500000000    -0.0412815  
C754     C      0.823330000000     0.641450000000     0.536510000000    -0.0201053  
C755     C      0.890050000000     0.703520000000     0.532410000000     0.0185935  
C756     C      0.846580000000     0.663100000000     0.535180000000     0.0164794  
C757     C      0.913080000000     0.725380000000     0.531000000000    -0.021215   
C758     C      0.854110000000     0.675180000000     0.509430000000    -0.0419755  
C759     C      0.875820000000     0.695100000000     0.508030000000    -0.0417246  
C760     C      0.882690000000     0.691280000000     0.558130000000    -0.0428102  
C761     C      0.635560000000     0.882780000000     0.524600000000    -0.0381982  
C762     C      0.617620000000     0.848520000000     0.487090000000    -0.0218722  
C763     C      0.650170000000     0.930010000000     0.511510000000     0.0166629  
C764     C      0.627500000000     0.877170000000     0.496770000000     0.0216737  
C765     C      0.666730000000     0.956230000000     0.517990000000    -0.0189927  
C766     C      0.630080000000     0.898640000000     0.476730000000    -0.0444295  
C767     C      0.641400000000     0.924780000000     0.483990000000    -0.0386354  
C768     C      0.646960000000     0.908940000000     0.531820000000    -0.0423641  
C769     C      0.707110000000     0.686890000000     0.003710000000    -0.0418979  
C770     C      0.724380000000     0.646950000000     0.034090000000    -0.0196163  
C771     C      0.663410000000     0.711880000000     0.014100000000     0.0193343  
C772     C      0.703610000000     0.670210000000     0.027700000000     0.0160385  
C773     C      0.641920000000     0.734290000000     0.007150000000    -0.0231715  
C774     C      0.679840000000     0.674480000000     0.044830000000    -0.0409975  
C775     C      0.659950000000     0.695220000000     0.038130000000    -0.0400965  
C776     C      0.687170000000     0.707560000000     0.996950000000    -0.0438617  
C777     C      0.891850000000     0.504940000000     0.425890000000    -0.0391434  
C778     C      0.855310000000     0.543690000000     0.429340000000    -0.0239325  
C779     C      0.928940000000     0.506110000000     0.390650000000     0.0172576  
C780     C      0.880310000000     0.530020000000     0.415220000000     0.0201913  
C781     C      0.955510000000     0.494070000000     0.377930000000    -0.0214025  
C782     C      0.893340000000     0.543030000000     0.392190000000    -0.0456925  
C783     C      0.917480000000     0.531210000000     0.380050000000    -0.0392017  
C784     C      0.915880000000     0.493000000000     0.413610000000    -0.0432953  
C785     C      0.693380000000     0.017350000000     0.329230000000    -0.0426872  
C786     C      0.642370000000     0.023290000000     0.314150000000    -0.0205537  
C787     C      0.706690000000     0.015690000000     0.378380000000     0.0171248  
C788     C      0.664750000000     0.020360000000     0.336570000000     0.0164695  
C789     C      0.729040000000     0.012180000000     0.400730000000    -0.0217741  
C790     C      0.657320000000     0.021180000000     0.365030000000    -0.0406645  
C791     C      0.677970000000     0.018130000000     0.385680000000    -0.0410259  
C792     C      0.714170000000     0.015010000000     0.349950000000    -0.0433302  
C793     C      0.661160000000     0.996940000000     0.124080000000    -0.0381167  
C794     C      0.664270000000     0.034450000000     0.086880000000    -0.0208539  
C795     C      0.625270000000     0.998350000000     0.160530000000     0.0223185  
C796     C      0.651110000000     0.022430000000     0.113030000000     0.0149447  
C797     C      0.610330000000     0.984630000000     0.184850000000    -0.0236876  
C798     C      0.628520000000     0.534300000000     0.126490000000    -0.0425178  
C799     C      0.615540000000     0.522490000000     0.150030000000    -0.0397904  
C800     C      0.648380000000     0.985010000000     0.147640000000    -0.0465297  
C801     C      0.911520000000     0.557180000000     0.154210000000    -0.0426348  
C802     C      0.933520000000     0.552500000000     0.202130000000    -0.0218287  
C803     C      0.860730000000     0.552740000000     0.147060000000     0.0170099  
C804     C      0.908080000000     0.552500000000     0.183010000000     0.0187617  
C805     C      0.835300000000     0.553080000000     0.127910000000    -0.0204052  
C806     C      0.880610000000     0.549170000000     0.193820000000    -0.0403355  
C807     C      0.857180000000     0.548990000000     0.175970000000    -0.0435057  
C808     C      0.888040000000     0.557780000000     0.136480000000    -0.0405664  
C809     C      0.970630000000     0.627160000000     0.378700000000    -0.0426939  
C810     C      0.000790000000     0.589460000000     0.356080000000    -0.0195351  
C811     C      0.991260000000     0.670940000000     0.395360000000     0.0158694  
C812     C      0.997190000000     0.618320000000     0.368820000000     0.0162386  
C813     C      0.989500000000     0.696850000000     0.413440000000    -0.0185424  
C814     C      0.020680000000     0.636160000000     0.372080000000    -0.0408987  
C815     C      0.017660000000     0.662370000000     0.384930000000    -0.0416023  
C816     C      0.967730000000     0.653200000000     0.392070000000    -0.0411482  
C817     C      0.036780000000     0.849930000000     0.333060000000    -0.0428225  
C818     C      0.012000000000     0.891540000000     0.310730000000    -0.0213365  
C819     C      0.017740000000     0.826930000000     0.374490000000     0.0171953  
C820     C      0.014150000000     0.869120000000     0.333070000000     0.0171267  
C821     C      0.019470000000     0.804390000000     0.396710000000    -0.0217012  
C822     C      0.993660000000     0.867410000000     0.354290000000    -0.0413872  
C823     C      0.995470000000     0.846510000000     0.374860000000    -0.0406923  
C824     C      0.038610000000     0.829050000000     0.353650000000    -0.043249   
C825     C      0.980340000000     0.904000000000     0.149010000000    -0.0405478  
C826     C      0.983900000000     0.907090000000     0.201740000000    -0.0205583  
C827     C      0.982130000000     0.859050000000     0.124850000000     0.0174882  
C828     C      0.982080000000     0.890240000000     0.175010000000     0.0169192  
C829     C      0.983730000000     0.842330000000     0.098030000000    -0.0207285  
C830     C      0.982310000000     0.860710000000     0.175730000000    -0.0432816  
C831     C      0.981980000000     0.845240000000     0.150860000000    -0.0410739  
C832     C      0.980770000000     0.888560000000     0.124160000000    -0.0423502  
C833     C      0.577280000000     0.628150000000     0.120920000000    -0.0454545  
C834     C      0.570960000000     0.666360000000     0.084650000000    -0.0233142  
C835     C      0.538450000000     0.613820000000     0.151090000000     0.0161625  
C836     C      0.560500000000     0.649680000000     0.109420000000     0.0206817  
C837     C      0.525820000000     0.592660000000     0.171020000000    -0.0204053  
C838     C      0.532800000000     0.653500000000     0.119370000000    -0.0394784  
C839     C      0.521890000000     0.635770000000     0.140100000000    -0.0425505  
C840     C      0.566320000000     0.610350000000     0.141530000000    -0.0389064  
C841     C      0.584980000000     0.509570000000     0.723430000000     0.397691   
C842     C      0.021280000000     0.941890000000     0.808790000000     0.400159   
C843     C      0.591090000000     0.511940000000     0.811220000000     0.402728   
C844     C      0.005850000000     0.951300000000     0.716970000000     0.40401    
C845     C      0.959210000000     0.015080000000     0.728040000000     0.408571   
C846     C      0.526910000000     0.566180000000     0.818040000000     0.411308   
C847     C      0.539880000000     0.568110000000     0.715470000000     0.406578   
C848     C      0.970730000000     0.989030000000     0.828580000000     0.407285   
C849     C      0.557100000000     0.714370000000     0.570260000000     0.406553   
C850     C      0.967780000000     0.823910000000     0.985340000000     0.406361   
C851     C      0.522170000000     0.815990000000     0.572270000000     0.412449   
C852     C      0.963620000000     0.724210000000     0.024380000000     0.414325   
C853     C      0.003950000000     0.709340000000     0.961990000000     0.40901    
C854     C      0.589140000000     0.816370000000     0.516930000000     0.400656   
C855     C      0.590730000000     0.731610000000     0.511640000000     0.398705   
C856     C      0.022830000000     0.805020000000     0.948930000000     0.395794   
C857     C      0.822910000000     0.537890000000     0.579790000000     0.40969    
C858     C      0.716700000000     0.974030000000     0.010450000000     0.411099   
C859     C      0.712900000000     0.541880000000     0.571880000000     0.407503   
C860     C      0.825400000000     0.969220000000     0.009500000000     0.407266   
C861     C      0.817750000000     0.021110000000     0.956240000000     0.399812   
C862     C      0.729130000000     0.595520000000     0.522970000000     0.402586   
C863     C      0.818460000000     0.590330000000     0.527890000000     0.402731   
C864     C      0.733470000000     0.024790000000     0.950980000000     0.402096   
C865     C      0.898490000000     0.930710000000     0.983640000000    -0.0385999  
C866     C      0.870550000000     0.947530000000     0.025280000000    -0.0219149  
C867     C      0.929930000000     0.890240000000     0.986480000000     0.0202049  
C868     C      0.890380000000     0.926810000000     0.011610000000     0.0175536  
C869     C      0.953610000000     0.872960000000     0.974160000000    -0.022511   
C870     C      0.901870000000     0.904220000000     0.026820000000    -0.0436028  
C871     C      0.921610000000     0.886170000000     0.014390000000    -0.0395743  
C872     C      0.918100000000     0.912620000000     0.971190000000    -0.045186   
C873     C      0.858970000000     0.671290000000     0.058690000000    -0.0407858  
C874     C      0.821630000000     0.643330000000     0.032940000000    -0.0202584  
C875     C      0.889120000000     0.704690000000     0.034320000000     0.019298   
C876     C      0.845230000000     0.664640000000     0.033500000000     0.0169688  
C877     C      0.912240000000     0.726460000000     0.034830000000    -0.0214461  
C878     C      0.853920000000     0.677800000000     0.008660000000    -0.0422849  
C879     C      0.875820000000     0.697550000000     0.009030000000    -0.0416914  
C880     C      0.880750000000     0.691200000000     0.059100000000    -0.0429795  
C881     C      0.626870000000     0.888050000000     0.025890000000    -0.0388689  
C882     C      0.611530000000     0.853900000000     0.987550000000    -0.0232004  
C883     C      0.652110000000     0.930960000000     0.014050000000     0.0164746  
C884     C      0.625550000000     0.880630000000     0.997400000000     0.020653   
C885     C      0.668870000000     0.956440000000     0.022590000000    -0.0194392  
C886     C      0.636740000000     0.899140000000     0.977370000000    -0.0452452  
C887     C      0.649860000000     0.924100000000     0.985600000000    -0.0380945  
C888     C      0.640360000000     0.912880000000     0.034150000000    -0.0426722  
C889     C      0.707850000000     0.686490000000     0.504610000000    -0.0410809  
C890     C      0.725010000000     0.646250000000     0.534640000000    -0.0194186  
C891     C      0.664640000000     0.711980000000     0.515670000000     0.0198283  
C892     C      0.704460000000     0.669770000000     0.528590000000     0.0157672  
C893     C      0.643250000000     0.734540000000     0.509010000000    -0.0231018  
C894     C      0.680980000000     0.674250000000     0.546040000000    -0.0407826  
C895     C      0.661260000000     0.695250000000     0.539660000000    -0.0403799  
C896     C      0.688080000000     0.707410000000     0.498170000000    -0.0447345  
C897     C      0.891270000000     0.505290000000     0.925610000000    -0.0391199  
C898     C      0.854970000000     0.544340000000     0.928310000000    -0.0240382  
C899     C      0.928780000000     0.505900000000     0.890780000000     0.0172916  
C900     C      0.880090000000     0.530400000000     0.914650000000     0.0204579  
C901     C      0.955270000000     0.493450000000     0.878320000000    -0.0215074  
C902     C      0.893530000000     0.543180000000     0.891730000000    -0.0458928  
C903     C      0.917710000000     0.531070000000     0.879940000000    -0.0391105  
C904     C      0.915330000000     0.493050000000     0.913670000000    -0.0433188  
C905     C      0.693320000000     0.016180000000     0.829610000000    -0.0428104  
C906     C      0.642320000000     0.022280000000     0.814520000000    -0.0205794  
C907     C      0.706570000000     0.014320000000     0.878770000000     0.0169279  
C908     C      0.664690000000     0.019230000000     0.836930000000     0.0164881  
C909     C      0.728870000000     0.010830000000     0.901170000000    -0.0216522  
C910     C      0.657230000000     0.019950000000     0.865390000000    -0.0406774  
C911     C      0.677850000000     0.016800000000     0.886050000000    -0.0410725  
C912     C      0.714080000000     0.013740000000     0.850350000000    -0.0431969  
C913     C      0.660940000000     0.995900000000     0.624640000000    -0.0380013  
C914     C      0.663700000000     0.033160000000     0.587170000000    -0.0208305  
C915     C      0.625240000000     0.997430000000     0.661270000000     0.0223906  
C916     C      0.650650000000     0.021230000000     0.613420000000     0.0149915  
C917     C      0.610540000000     0.983830000000     0.685800000000    -0.0236383  
C918     C      0.628030000000     0.533160000000     0.626920000000    -0.0425161  
C919     C      0.615270000000     0.521450000000     0.650630000000    -0.0396839  
C920     C      0.648360000000     0.984110000000     0.648370000000    -0.0464495  
C921     C      0.911150000000     0.555550000000     0.653950000000    -0.0426384  
C922     C      0.933560000000     0.551190000000     0.701730000000    -0.0217495  
C923     C      0.860270000000     0.551310000000     0.647310000000     0.0170094  
C924     C      0.907950000000     0.551220000000     0.682840000000     0.0185408  
C925     C      0.834670000000     0.551510000000     0.628370000000    -0.0205133  
C926     C      0.880540000000     0.548230000000     0.693930000000    -0.0403345  
C927     C      0.856960000000     0.547970000000     0.676290000000    -0.0435776  
C928     C      0.887510000000     0.556070000000     0.636430000000    -0.0406265  
C929     C      0.969790000000     0.625180000000     0.879600000000    -0.0426141  
C930     C      0.000530000000     0.587820000000     0.857190000000    -0.0195172  
C931     C      0.989880000000     0.669070000000     0.896630000000     0.015935   
C932     C      0.996540000000     0.616590000000     0.870010000000     0.0162132  
C933     C      0.987670000000     0.694970000000     0.914680000000    -0.0186762  
C934     C      0.019850000000     0.634600000000     0.873600000000    -0.0408939  
C935     C      0.016470000000     0.660740000000     0.886500000000    -0.0415323  
C936     C      0.966520000000     0.651160000000     0.893010000000    -0.0412781  
C937     C      0.035910000000     0.848960000000     0.833480000000    -0.0427921  
C938     C      0.011200000000     0.890560000000     0.811070000000    -0.0214201  
C939     C      0.016730000000     0.825920000000     0.874830000000     0.0171266  
C940     C      0.013280000000     0.868140000000     0.833410000000     0.0171868  
C941     C      0.018420000000     0.803420000000     0.897100000000    -0.0217451  
C942     C      0.992700000000     0.866390000000     0.854550000000    -0.0414508  
C943     C      0.994440000000     0.845490000000     0.875110000000    -0.0406325  
C944     C      0.037670000000     0.828070000000     0.854070000000    -0.0432024  
C945     C      0.980990000000     0.904920000000     0.648310000000    -0.0406042  
C946     C      0.983310000000     0.906940000000     0.701160000000    -0.0206509  
C947     C      0.982780000000     0.860410000000     0.623350000000     0.0172971  
C948     C      0.981680000000     0.890640000000     0.674080000000     0.0169951  
C949     C      0.985230000000     0.844180000000     0.596300000000    -0.0206257  
C950     C      0.981230000000     0.861100000000     0.674240000000    -0.0434004  
C951     C      0.981400000000     0.846120000000     0.649080000000    -0.0409802  
C952     C      0.981950000000     0.889950000000     0.623190000000    -0.0422907  
C953     C      0.575550000000     0.627330000000     0.621050000000    -0.0452315  
C954     C      0.568490000000     0.665460000000     0.584810000000    -0.0232649  
C955     C      0.537210000000     0.612900000000     0.651760000000     0.0161843  
C956     C      0.558520000000     0.648780000000     0.609770000000     0.0202592  
C957     C      0.524890000000     0.591650000000     0.671790000000    -0.0203007  
C958     C      0.530980000000     0.652550000000     0.620150000000    -0.0396776  
C959     C      0.520430000000     0.634810000000     0.641040000000    -0.0426748  
C960     C      0.564960000000     0.609510000000     0.641840000000    -0.0390539  
Co1      Co     0.022330000000     0.011010000000     0.228250000000     0.840673   
Co2      Co     0.528730000000     0.504930000000     0.309260000000     0.844798   
Co3      Co     0.053500000000     0.040060000000     0.267790000000     0.838693   
Co4      Co     0.491390000000     0.481750000000     0.270080000000     0.839161   
Co5      Co     0.026000000000     0.227050000000     0.017490000000     0.843914   
Co6      Co     0.525870000000     0.309480000000     0.510580000000     0.834178   
Co7      Co     0.054350000000     0.271470000000     0.043260000000     0.835394   
Co8      Co     0.493550000000     0.266900000000     0.487510000000     0.832431   
Co9      Co     0.312650000000     0.031520000000     0.017510000000     0.843173   
Co10     Co     0.231790000000     0.534660000000     0.513100000000     0.844659   
Co11     Co     0.271030000000     0.059400000000     0.049580000000     0.842692   
Co12     Co     0.271740000000     0.496260000000     0.492110000000     0.845528   
Co13     Co     0.022250000000     0.010180000000     0.728770000000     0.840963   
Co14     Co     0.528710000000     0.503700000000     0.809710000000     0.845308   
Co15     Co     0.053170000000     0.039360000000     0.768380000000     0.838482   
Co16     Co     0.491100000000     0.480850000000     0.770530000000     0.83937    
Co17     Co     0.027270000000     0.227630000000     0.516920000000     0.843071   
Co18     Co     0.522970000000     0.309060000000     0.011010000000     0.835852   
Co19     Co     0.055500000000     0.271340000000     0.543850000000     0.836244   
Co20     Co     0.491950000000     0.265760000000     0.987850000000     0.830289   
Co21     Co     0.311880000000     0.030320000000     0.517980000000     0.84285    
Co22     Co     0.232490000000     0.535550000000     0.012870000000     0.843982   
Co23     Co     0.270390000000     0.058090000000     0.550020000000     0.841442   
Co24     Co     0.272430000000     0.497110000000     0.992130000000     0.846563   
Co25     Co     0.022430000000     0.510690000000     0.228570000000     0.841201   
Co26     Co     0.528710000000     0.004970000000     0.308790000000     0.843555   
Co27     Co     0.053660000000     0.539710000000     0.268070000000     0.838557   
Co28     Co     0.491030000000     0.982200000000     0.269680000000     0.840157   
Co29     Co     0.026450000000     0.727260000000     0.017110000000     0.843732   
Co30     Co     0.526860000000     0.809470000000     0.510140000000     0.834017   
Co31     Co     0.054540000000     0.771530000000     0.043400000000     0.835881   
Co32     Co     0.493880000000     0.767170000000     0.487330000000     0.833952   
Co33     Co     0.312820000000     0.530810000000     0.018680000000     0.844149   
Co34     Co     0.231480000000     0.034750000000     0.512460000000     0.844078   
Co35     Co     0.271130000000     0.558900000000     0.050520000000     0.842475   
Co36     Co     0.271620000000     0.996620000000     0.491260000000     0.846987   
Co37     Co     0.022370000000     0.509780000000     0.729100000000     0.841535   
Co38     Co     0.528680000000     0.003770000000     0.809220000000     0.844176   
Co39     Co     0.053320000000     0.539010000000     0.768650000000     0.838641   
Co40     Co     0.490760000000     0.981350000000     0.770080000000     0.840135   
Co41     Co     0.027740000000     0.727800000000     0.516520000000     0.842755   
Co42     Co     0.523980000000     0.809150000000     0.010510000000     0.835278   
Co43     Co     0.055630000000     0.771310000000     0.544100000000     0.837336   
Co44     Co     0.492340000000     0.766090000000     0.987660000000     0.831002   
Co45     Co     0.312110000000     0.529600000000     0.519150000000     0.843828   
Co46     Co     0.232240000000     0.035660000000     0.012280000000     0.843244   
Co47     Co     0.270570000000     0.557640000000     0.550970000000     0.841555   
Co48     Co     0.272340000000     0.997440000000     0.991370000000     0.847958   
Co49     Co     0.522250000000     0.011090000000     0.228560000000     0.839999   
Co50     Co     0.028700000000     0.505010000000     0.309010000000     0.844526   
Co51     Co     0.553540000000     0.040010000000     0.268040000000     0.838853   
Co52     Co     0.991590000000     0.481580000000     0.269800000000     0.839192   
Co53     Co     0.525870000000     0.227280000000     0.017900000000     0.844198   
Co54     Co     0.024980000000     0.309370000000     0.510870000000     0.834213   
Co55     Co     0.554580000000     0.271560000000     0.043510000000     0.835365   
Co56     Co     0.993580000000     0.266490000000     0.487210000000     0.831717   
Co57     Co     0.812330000000     0.030380000000     0.017620000000     0.842873   
Co58     Co     0.731550000000     0.533990000000     0.512870000000     0.844471   
Co59     Co     0.770740000000     0.058490000000     0.049510000000     0.842638   
Co60     Co     0.771470000000     0.495570000000     0.491870000000     0.845393   
Co61     Co     0.522280000000     0.010140000000     0.729160000000     0.840308   
Co62     Co     0.028580000000     0.503890000000     0.809400000000     0.845058   
Co63     Co     0.553360000000     0.039230000000     0.768700000000     0.838945   
Co64     Co     0.991300000000     0.480700000000     0.770160000000     0.839336   
Co65     Co     0.527080000000     0.227920000000     0.517300000000     0.842987   
Co66     Co     0.022100000000     0.308980000000     0.011380000000     0.835967   
Co67     Co     0.555520000000     0.271430000000     0.544320000000     0.837071   
Co68     Co     0.991980000000     0.265450000000     0.987530000000     0.829928   
Co69     Co     0.811650000000     0.029250000000     0.518040000000     0.842031   
Co70     Co     0.732260000000     0.534750000000     0.012720000000     0.843871   
Co71     Co     0.770170000000     0.057270000000     0.549810000000     0.841372   
Co72     Co     0.772140000000     0.496150000000     0.992150000000     0.846782   
Co73     Co     0.522330000000     0.510730000000     0.228870000000     0.840679   
Co74     Co     0.028680000000     0.005020000000     0.308550000000     0.843561   
Co75     Co     0.553740000000     0.539600000000     0.268300000000     0.838746   
Co76     Co     0.991220000000     0.982010000000     0.269420000000     0.840206   
Co77     Co     0.526440000000     0.727560000000     0.017460000000     0.843734   
Co78     Co     0.025810000000     0.809370000000     0.510490000000     0.83398    
Co79     Co     0.554880000000     0.771630000000     0.043690000000     0.836235   
Co80     Co     0.993850000000     0.766710000000     0.487060000000     0.832733   
Co81     Co     0.812580000000     0.529760000000     0.018730000000     0.843996   
Co82     Co     0.731180000000     0.034060000000     0.512210000000     0.843618   
Co83     Co     0.770920000000     0.558020000000     0.050450000000     0.84301    
Co84     Co     0.771310000000     0.995990000000     0.490930000000     0.846487   
Co85     Co     0.522370000000     0.509680000000     0.729510000000     0.840884   
Co86     Co     0.028520000000     0.003950000000     0.808930000000     0.843784   
Co87     Co     0.553500000000     0.538820000000     0.768960000000     0.83907    
Co88     Co     0.990930000000     0.981170000000     0.769750000000     0.839882   
Co89     Co     0.527600000000     0.728120000000     0.516830000000     0.842637   
Co90     Co     0.022820000000     0.809050000000     0.010970000000     0.835713   
Co91     Co     0.555650000000     0.771380000000     0.544620000000     0.838539   
Co92     Co     0.992230000000     0.765690000000     0.987360000000     0.830653   
Co93     Co     0.811900000000     0.528590000000     0.519190000000     0.843245   
Co94     Co     0.731910000000     0.034840000000     0.012150000000     0.843144   
Co95     Co     0.770390000000     0.556840000000     0.550800000000     0.841481   
Co96     Co     0.771950000000     0.996480000000     0.991370000000     0.848179   
H1       H      0.429420000000     0.335370000000     0.967900000000     0.103562   
H2       H      0.368450000000     0.443090000000     0.048510000000     0.0419726  
H3       H      0.378300000000     0.467840000000     0.527380000000     0.0549313  
H4       H      0.426360000000     0.418390000000     0.453680000000     0.0386073  
H5       H      0.390060000000     0.448410000000     0.474930000000     0.043961   
H6       H      0.459780000000     0.381400000000     0.456150000000     0.0390405  
H7       H      0.395110000000     0.399850000000     0.551060000000     0.0400689  
H8       H      0.431680000000     0.369980000000     0.529900000000     0.0467119  
H9       H      0.475390000000     0.381010000000     0.490180000000     0.0551451  
H10      H      0.335350000000     0.427320000000     0.005670000000     0.10574    
H11      H      0.441910000000     0.197070000000     0.051390000000     0.103993   
H12      H      0.311710000000     0.142170000000     0.052990000000     0.0520645  
H13      H      0.304100000000     0.151030000000     0.523190000000     0.0412089  
H14      H      0.392230000000     0.198420000000     0.577870000000     0.0401194  
H15      H      0.354340000000     0.163060000000     0.579280000000     0.0411017  
H16      H      0.410860000000     0.239810000000     0.512970000000     0.0528192  
H17      H      0.343080000000     0.171410000000     0.490110000000     0.040328   
H18      H      0.381280000000     0.206400000000     0.488620000000     0.0429514  
H19      H      0.409490000000     0.241860000000     0.550140000000     0.0399582  
H20      H      0.348770000000     0.118390000000     0.007140000000     0.104709   
H21      H      0.207360000000     0.432510000000     0.015410000000     0.105682   
H22      H      0.085750000000     0.364850000000     0.984460000000     0.0582983  
H23      H      0.127620000000     0.343710000000     0.470460000000     0.0373544  
H24      H      0.147480000000     0.415240000000     0.555130000000     0.0406672  
H25      H      0.124970000000     0.371060000000     0.541680000000     0.0475261  
H26      H      0.158690000000     0.475710000000     0.509610000000     0.0501735  
H27      H      0.129010000000     0.395980000000     0.454760000000     0.0404991  
H28      H      0.151020000000     0.440560000000     0.468580000000     0.0439037  
H29      H      0.165970000000     0.461370000000     0.543350000000     0.0415775  
H30      H      0.126620000000     0.328910000000     0.019430000000     0.103268   
H31      H      0.114960000000     0.204980000000     0.486320000000     0.104497   
H32      H      0.246340000000     0.153510000000     0.527550000000     0.0427305  
H33      H      0.223990000000     0.142950000000     0.055530000000     0.0489577  
H34      H      0.189450000000     0.220510000000     0.976440000000     0.039279   
H35      H      0.224420000000     0.184260000000     0.988380000000     0.0403321  
H36      H      0.139940000000     0.250110000000     0.023100000000     0.056641   
H37      H      0.176430000000     0.162960000000     0.062160000000     0.0415949  
H38      H      0.141500000000     0.199410000000     0.050360000000     0.0479768  
H39      H      0.148070000000     0.247030000000     0.986730000000     0.0386854  
H40      H      0.201630000000     0.123450000000     0.501660000000     0.106522   
H41      H      0.431240000000     0.478320000000     0.343280000000     0.105062   
H42      H      0.362440000000     0.553390000000     0.449360000000     0.0566747  
H43      H      0.345400000000     0.063540000000     0.414220000000     0.0376261  
H44      H      0.424240000000     0.474780000000     0.422540000000     0.0386278  
H45      H      0.382120000000     0.495900000000     0.443960000000     0.047947   
H46      H      0.472020000000     0.013250000000     0.379230000000     0.0522229  
H47      H      0.383830000000     0.064990000000     0.382180000000     0.0389455  
H48      H      0.426600000000     0.044450000000     0.361530000000     0.0427633  
H49      H      0.462380000000     0.475790000000     0.389660000000     0.0411009  
H50      H      0.324710000000     0.513450000000     0.415480000000     0.103858   
H51      H      0.211620000000     0.049210000000     0.421950000000     0.104467   
H52      H      0.136680000000     0.046790000000     0.313190000000     0.0515736  
H53      H      0.149860000000     0.519270000000     0.295180000000     0.0454154  
H54      H      0.235750000000     0.512720000000     0.344730000000     0.0393694  
H55      H      0.199030000000     0.517760000000     0.308810000000     0.0395289  
H56      H      0.229310000000     0.489970000000     0.408750000000     0.0521296  
H57      H      0.135630000000     0.525600000000     0.373370000000     0.0457892  
H58      H      0.171930000000     0.518920000000     0.409070000000     0.0465203  
H59      H      0.250630000000     0.516820000000     0.393050000000     0.0436492  
H60      H      0.118540000000     0.990500000000     0.334980000000     0.105187   
H61      H      0.128550000000     0.011620000000     0.216680000000     0.103572   
H62      H      0.164310000000     0.516510000000     0.070940000000     0.0520676  
H63      H      0.152760000000     0.551390000000     0.079620000000     0.0430597  
H64      H      0.156680000000     0.463930000000     0.156320000000     0.0396803  
H65      H      0.179210000000     0.484750000000     0.115010000000     0.0431673  
H66      H      0.089250000000     0.476960000000     0.178510000000     0.0564256  
H67      H      0.120230000000     0.056020000000     0.118010000000     0.0387602  
H68      H      0.097510000000     0.034670000000     0.159010000000     0.0494595  
H69      H      0.122180000000     0.464340000000     0.192160000000     0.0377088  
H70      H      0.200100000000     0.049770000000     0.112020000000     0.104532   
H71      H      0.358850000000     0.525310000000     0.100460000000     0.104927   
H72      H      0.453400000000     0.555620000000     0.190080000000     0.0527404  
H73      H      0.431690000000     0.071520000000     0.215430000000     0.0399231  
H74      H      0.391760000000     0.062390000000     0.113420000000     0.0448429  
H75      H      0.432770000000     0.060930000000     0.144530000000     0.0411416  
H76      H      0.316840000000     0.044690000000     0.137230000000     0.0455609  
H77      H      0.377310000000     0.047570000000     0.215060000000     0.0396445  
H78      H      0.336460000000     0.047060000000     0.183640000000     0.0398935  
H79      H      0.330270000000     0.076290000000     0.121970000000     0.0490066  
H80      H      0.415960000000     0.519320000000     0.227920000000     0.103587   
H81      H      0.011490000000     0.170880000000     0.444770000000     0.107938   
H82      H      0.516970000000     0.076490000000     0.373160000000     0.0482823  
H83      H      0.483720000000     0.077270000000     0.355420000000     0.0446461  
H84      H      0.447200000000     0.157030000000     0.401180000000     0.0403391  
H85      H      0.454170000000     0.111570000000     0.377770000000     0.0388943  
H86      H      0.498160000000     0.214450000000     0.404610000000     0.0453148  
H87      H      0.041560000000     0.129260000000     0.366100000000     0.044741   
H88      H      0.035850000000     0.175050000000     0.388980000000     0.04268    
H89      H      0.465370000000     0.201780000000     0.418170000000     0.045809   
H90      H      0.019790000000     0.110320000000     0.320560000000     0.104894   
H91      H      0.045530000000     0.332750000000     0.421940000000     0.104002   
H92      H      0.522330000000     0.383750000000     0.291330000000     0.0418004  
H93      H      0.489970000000     0.396240000000     0.306620000000     0.0518949  
H94      H      0.556360000000     0.313980000000     0.353580000000     0.0393381  
H95      H      0.553440000000     0.350760000000     0.317570000000     0.0400817  
H96      H      0.497900000000     0.295050000000     0.400610000000     0.0525879  
H97      H      0.476540000000     0.381940000000     0.355060000000     0.0432558  
H98      H      0.479430000000     0.345110000000     0.391050000000     0.0443113  
H99      H      0.532800000000     0.286110000000     0.389600000000     0.039701   
H100     H      0.043720000000     0.415440000000     0.335210000000     0.105754   
H101     H      0.018220000000     0.317160000000     0.116510000000     0.104399   
H102     H      0.463230000000     0.416250000000     0.206850000000     0.0503219  
H103     H      0.489550000000     0.392880000000     0.220450000000     0.0444781  
H104     H      0.480810000000     0.400670000000     0.105010000000     0.0412615  
H105     H      0.479660000000     0.427110000000     0.148920000000     0.0454477  
H106     H      0.465670000000     0.329790000000     0.095930000000     0.0409651  
H107     H      0.983910000000     0.349080000000     0.196370000000     0.0395063  
H108     H      0.982830000000     0.321670000000     0.152950000000     0.0402454  
H109     H      0.484300000000     0.357910000000     0.079480000000     0.0496363  
H110     H      0.019630000000     0.428670000000     0.182890000000     0.104475   
H111     H      0.052450000000     0.109910000000     0.203460000000     0.105676   
H112     H      0.095080000000     0.161490000000     0.080020000000     0.0382446  
H113     H      0.060370000000     0.159490000000     0.065140000000     0.0570293  
H114     H      0.080230000000     0.093390000000     0.148980000000     0.0427156  
H115     H      0.099780000000     0.124530000000     0.112950000000     0.0392852  
H116     H      0.003910000000     0.097620000000     0.174210000000     0.0411978  
H117     H      0.520020000000     0.169910000000     0.109890000000     0.0493317  
H118     H      0.500510000000     0.139040000000     0.146220000000     0.0397684  
H119     H      0.026780000000     0.071550000000     0.159820000000     0.0513257  
H120     H      0.079950000000     0.205180000000     0.106190000000     0.104211   
H121     H      0.431580000000     0.337580000000     0.470160000000     0.103777   
H122     H      0.365750000000     0.440740000000     0.550400000000     0.0416205  
H123     H      0.380200000000     0.469260000000     0.024030000000     0.0541832  
H124     H      0.424800000000     0.416930000000     0.950250000000     0.0386224  
H125     H      0.390310000000     0.448490000000     0.972180000000     0.0433595  
H126     H      0.456310000000     0.378350000000     0.951910000000     0.0382521  
H127     H      0.396450000000     0.401130000000     0.048960000000     0.0400916  
H128     H      0.431250000000     0.369680000000     0.027120000000     0.0477117  
H129     H      0.473980000000     0.379380000000     0.984930000000     0.0554121  
H130     H      0.334280000000     0.426070000000     0.506400000000     0.105617   
H131     H      0.442570000000     0.196200000000     0.548000000000     0.104205   
H132     H      0.314910000000     0.139620000000     0.557320000000     0.0509481  
H133     H      0.304030000000     0.152900000000     0.017540000000     0.0397553  
H134     H      0.389690000000     0.197130000000     0.079440000000     0.0400144  
H135     H      0.351440000000     0.162190000000     0.077610000000     0.0418485  
H136     H      0.410270000000     0.242430000000     0.018060000000     0.053049   
H137     H      0.343880000000     0.175120000000     0.988590000000     0.0401221  
H138     H      0.382390000000     0.209760000000     0.990370000000     0.0441278  
H139     H      0.408720000000     0.241210000000     0.055270000000     0.0389374  
H140     H      0.349880000000     0.116630000000     0.510130000000     0.104952   
H141     H      0.204730000000     0.432100000000     0.510340000000     0.106011   
H142     H      0.092790000000     0.356260000000     0.476960000000     0.0575401  
H143     H      0.116850000000     0.349200000000     0.970130000000     0.0392224  
H144     H      0.139370000000     0.420790000000     0.058170000000     0.0401863  
H145     H      0.113180000000     0.378860000000     0.043500000000     0.048227   
H146     H      0.160990000000     0.476420000000     0.014960000000     0.0511755  
H147     H      0.136310000000     0.395060000000     0.957570000000     0.0404342  
H148     H      0.161760000000     0.437490000000     0.972260000000     0.0452174  
H149     H      0.168720000000     0.460550000000     0.048010000000     0.0406074  
H150     H      0.130490000000     0.324170000000     0.518680000000     0.101769   
H151     H      0.113390000000     0.204410000000     0.986030000000     0.104515   
H152     H      0.245830000000     0.154720000000     0.027120000000     0.0426797  
H153     H      0.224590000000     0.142130000000     0.556190000000     0.0490545  
H154     H      0.190490000000     0.220040000000     0.477270000000     0.0393576  
H155     H      0.225070000000     0.183340000000     0.488990000000     0.0400026  
H156     H      0.141230000000     0.250020000000     0.524410000000     0.0564477  
H157     H      0.177400000000     0.162810000000     0.563190000000     0.041665   
H158     H      0.142870000000     0.199700000000     0.551600000000     0.0480946  
H159     H      0.149740000000     0.247350000000     0.488090000000     0.0381098  
H160     H      0.201850000000     0.124020000000     0.000780000000     0.106531   
H161     H      0.431100000000     0.477680000000     0.843850000000     0.105021   
H162     H      0.362280000000     0.554750000000     0.948360000000     0.0567801  
H163     H      0.345510000000     0.064070000000     0.912880000000     0.0374908  
H164     H      0.423420000000     0.474790000000     0.922830000000     0.0385889  
H165     H      0.381340000000     0.496560000000     0.943670000000     0.0482525  
H166     H      0.472190000000     0.012270000000     0.879710000000     0.0522854  
H167     H      0.384790000000     0.065390000000     0.881800000000     0.038933   
H168     H      0.427540000000     0.044240000000     0.861740000000     0.042611   
H169     H      0.461930000000     0.475140000000     0.890330000000     0.0410462  
H170     H      0.324420000000     0.514530000000     0.914890000000     0.103718   
H171     H      0.211550000000     0.048740000000     0.921790000000     0.1046     
H172     H      0.136420000000     0.046000000000     0.813590000000     0.0516186  
H173     H      0.149700000000     0.518680000000     0.795370000000     0.0453831  
H174     H      0.235670000000     0.512290000000     0.844820000000     0.0393013  
H175     H      0.198880000000     0.517260000000     0.808940000000     0.0394842  
H176     H      0.229180000000     0.489540000000     0.909110000000     0.0516798  
H177     H      0.135520000000     0.524680000000     0.873580000000     0.0458939  
H178     H      0.171890000000     0.518090000000     0.909230000000     0.0464432  
H179     H      0.250590000000     0.516110000000     0.893090000000     0.0437339  
H180     H      0.118490000000     0.989500000000     0.835090000000     0.105059   
H181     H      0.128460000000     0.011210000000     0.717400000000     0.103484   
H182     H      0.163720000000     0.515320000000     0.571380000000     0.0520147  
H183     H      0.152100000000     0.550200000000     0.579990000000     0.0431556  
H184     H      0.156860000000     0.463270000000     0.657270000000     0.0397201  
H185     H      0.179030000000     0.483910000000     0.615690000000     0.0432198  
H186     H      0.089480000000     0.475830000000     0.679640000000     0.0565537  
H187     H      0.119430000000     0.054610000000     0.618260000000     0.0388103  
H188     H      0.097060000000     0.033470000000     0.659560000000     0.0496327  
H189     H      0.122610000000     0.463790000000     0.693320000000     0.0377207  
H190     H      0.199400000000     0.048610000000     0.612300000000     0.104553   
H191     H      0.358010000000     0.523440000000     0.600960000000     0.104886   
H192     H      0.453550000000     0.553880000000     0.689380000000     0.0525379  
H193     H      0.432310000000     0.070350000000     0.714670000000     0.0400213  
H194     H      0.391090000000     0.060340000000     0.613200000000     0.0448947  
H195     H      0.432420000000     0.058980000000     0.643900000000     0.0409773  
H196     H      0.316390000000     0.043090000000     0.637930000000     0.0453857  
H197     H      0.377610000000     0.046970000000     0.715170000000     0.0396245  
H198     H      0.336430000000     0.046320000000     0.684170000000     0.0398744  
H199     H      0.329590000000     0.074630000000     0.622340000000     0.0491379  
H200     H      0.416010000000     0.518220000000     0.727650000000     0.10365    
H201     H      0.009260000000     0.169180000000     0.946350000000     0.107941   
H202     H      0.517220000000     0.074940000000     0.874360000000     0.0481812  
H203     H      0.483930000000     0.075210000000     0.856670000000     0.0447828  
H204     H      0.445950000000     0.154550000000     0.901940000000     0.0403083  
H205     H      0.453700000000     0.109240000000     0.878490000000     0.0388502  
H206     H      0.496150000000     0.212520000000     0.906010000000     0.0457037  
H207     H      0.040850000000     0.127980000000     0.867730000000     0.0447015  
H208     H      0.034510000000     0.173650000000     0.890700000000     0.0428098  
H209     H      0.463400000000     0.199420000000     0.919260000000     0.0455658  
H210     H      0.019470000000     0.109140000000     0.821800000000     0.104965   
H211     H      0.043690000000     0.332200000000     0.922670000000     0.104144   
H212     H      0.521340000000     0.382540000000     0.791610000000     0.0418623  
H213     H      0.489130000000     0.395320000000     0.806970000000     0.0519232  
H214     H      0.555270000000     0.312840000000     0.854050000000     0.0393936  
H215     H      0.552520000000     0.349630000000     0.818030000000     0.0401406  
H216     H      0.496710000000     0.293760000000     0.900740000000     0.0524725  
H217     H      0.475450000000     0.380790000000     0.855180000000     0.0431596  
H218     H      0.478160000000     0.343940000000     0.891170000000     0.0440784  
H219     H      0.531840000000     0.285130000000     0.890190000000     0.039811   
H220     H      0.043210000000     0.414220000000     0.835420000000     0.105765   
H221     H      0.018660000000     0.318270000000     0.615890000000     0.104361   
H222     H      0.462660000000     0.416530000000     0.706140000000     0.0502592  
H223     H      0.487970000000     0.392120000000     0.719820000000     0.0444081  
H224     H      0.482950000000     0.402650000000     0.604420000000     0.0413148  
H225     H      0.480840000000     0.428140000000     0.648850000000     0.0456006  
H226     H      0.466890000000     0.332450000000     0.592960000000     0.0411731  
H227     H      0.982110000000     0.348930000000     0.694810000000     0.0395488  
H228     H      0.981840000000     0.322400000000     0.650850000000     0.0403628  
H229     H      0.487110000000     0.360380000000     0.578110000000     0.0496943  
H230     H      0.020080000000     0.427720000000     0.683610000000     0.104523   
H231     H      0.051820000000     0.109280000000     0.704070000000     0.105604   
H232     H      0.093130000000     0.160640000000     0.579700000000     0.0389241  
H233     H      0.058030000000     0.159120000000     0.565670000000     0.057086   
H234     H      0.079390000000     0.092790000000     0.649140000000     0.0427542  
H235     H      0.098480000000     0.124000000000     0.612920000000     0.0393583  
H236     H      0.003260000000     0.096710000000     0.674960000000     0.0412105  
H237     H      0.518310000000     0.169160000000     0.610950000000     0.0486802  
H238     H      0.499380000000     0.138240000000     0.647540000000     0.0396804  
H239     H      0.026240000000     0.070810000000     0.660460000000     0.0513055  
H240     H      0.078200000000     0.204270000000     0.607010000000     0.104252   
H241     H      0.430050000000     0.836200000000     0.968640000000     0.103581   
H242     H      0.368920000000     0.944790000000     0.047420000000     0.042247   
H243     H      0.378710000000     0.969100000000     0.525770000000     0.0549695  
H244     H      0.427620000000     0.918590000000     0.453550000000     0.0387973  
H245     H      0.391050000000     0.948890000000     0.473960000000     0.0439086  
H246     H      0.461430000000     0.882010000000     0.457150000000     0.0394781  
H247     H      0.395080000000     0.901320000000     0.550750000000     0.0401552  
H248     H      0.431900000000     0.871170000000     0.530450000000     0.0462811  
H249     H      0.476090000000     0.881430000000     0.491580000000     0.0551113  
H250     H      0.335980000000     0.928210000000     0.004560000000     0.105805   
H251     H      0.442520000000     0.696500000000     0.050330000000     0.104099   
H252     H      0.312700000000     0.641480000000     0.054410000000     0.0518406  
H253     H      0.304550000000     0.650160000000     0.524450000000     0.0414662  
H254     H      0.393310000000     0.698230000000     0.577530000000     0.0401769  
H255     H      0.355480000000     0.662840000000     0.579750000000     0.0410122  
H256     H      0.411190000000     0.738890000000     0.511940000000     0.0526788  
H257     H      0.343080000000     0.670310000000     0.490640000000     0.0403472  
H258     H      0.381220000000     0.705320000000     0.488350000000     0.0427509  
H259     H      0.410110000000     0.741500000000     0.549070000000     0.0402347  
H260     H      0.349380000000     0.617510000000     0.008470000000     0.104714   
H261     H      0.207920000000     0.932430000000     0.015300000000     0.105757   
H262     H      0.087290000000     0.863690000000     0.983500000000     0.0583154  
H263     H      0.130110000000     0.842420000000     0.471320000000     0.0370932  
H264     H      0.149880000000     0.914170000000     0.554810000000     0.040794   
H265     H      0.128050000000     0.869580000000     0.541700000000     0.0472128  
H266     H      0.158670000000     0.975260000000     0.509060000000     0.0503105  
H267     H      0.128110000000     0.895550000000     0.454980000000     0.0406571  
H268     H      0.149540000000     0.940500000000     0.468510000000     0.0438964  
H269     H      0.166300000000     0.961180000000     0.542820000000     0.0420252  
H270     H      0.127470000000     0.828140000000     0.019670000000     0.103182   
H271     H      0.115860000000     0.705150000000     0.487110000000     0.104572   
H272     H      0.246830000000     0.653330000000     0.529000000000     0.0427061  
H273     H      0.224140000000     0.642510000000     0.056800000000     0.0489647  
H274     H      0.190350000000     0.720730000000     0.978040000000     0.0392785  
H275     H      0.225210000000     0.684390000000     0.990020000000     0.0403541  
H276     H      0.140370000000     0.749910000000     0.024500000000     0.0565799  
H277     H      0.176490000000     0.662460000000     0.063150000000     0.0416836  
H278     H      0.141670000000     0.699000000000     0.051310000000     0.0478837  
H279     H      0.148910000000     0.747210000000     0.988190000000     0.0386528  
H280     H      0.202310000000     0.623490000000     0.502580000000     0.106594   
H281     H      0.430650000000     0.980450000000     0.342790000000     0.105367   
H282     H      0.360710000000     0.055600000000     0.447600000000     0.056613   
H283     H      0.346910000000     0.562700000000     0.416500000000     0.0376881  
H284     H      0.423650000000     0.976860000000     0.421780000000     0.0380876  
H285     H      0.381150000000     0.997650000000     0.442780000000     0.0494401  
H286     H      0.472410000000     0.510950000000     0.380190000000     0.0535301  
H287     H      0.384940000000     0.563440000000     0.383600000000     0.0387797  
H288     H      0.427340000000     0.542570000000     0.362510000000     0.0436458  
H289     H      0.462180000000     0.978440000000     0.389510000000     0.0411795  
H290     H      0.323780000000     0.014380000000     0.414200000000     0.103623   
H291     H      0.212890000000     0.549720000000     0.422520000000     0.104489   
H292     H      0.136050000000     0.547970000000     0.315090000000     0.0509033  
H293     H      0.150340000000     0.017290000000     0.293800000000     0.0445193  
H294     H      0.235840000000     0.012680000000     0.344190000000     0.0392977  
H295     H      0.199480000000     0.017280000000     0.307850000000     0.0392959  
H296     H      0.228840000000     0.989770000000     0.408040000000     0.0528665  
H297     H      0.135270000000     0.024550000000     0.371700000000     0.0461793  
H298     H      0.171230000000     0.018300000000     0.407800000000     0.0463658  
H299     H      0.250140000000     0.016810000000     0.392650000000     0.0439167  
H300     H      0.118200000000     0.492030000000     0.337180000000     0.104812   
H301     H      0.128690000000     0.510550000000     0.217320000000     0.103734   
H302     H      0.163510000000     0.018670000000     0.070460000000     0.0522349  
H303     H      0.152840000000     0.053950000000     0.079640000000     0.0423606  
H304     H      0.156690000000     0.965520000000     0.155430000000     0.0400363  
H305     H      0.179130000000     0.986680000000     0.114230000000     0.0434036  
H306     H      0.089200000000     0.978370000000     0.177600000000     0.056677   
H307     H      0.120680000000     0.554410000000     0.118420000000     0.039163   
H308     H      0.097870000000     0.533420000000     0.159560000000     0.0493805  
H309     H      0.121800000000     0.965310000000     0.191280000000     0.0379053  
H310     H      0.200250000000     0.547590000000     0.112830000000     0.104719   
H311     H      0.358910000000     0.025640000000     0.099130000000     0.10473    
H312     H      0.453710000000     0.055910000000     0.189210000000     0.0525907  
H313     H      0.431750000000     0.570990000000     0.216910000000     0.0397577  
H314     H      0.391550000000     0.562570000000     0.114590000000     0.0449111  
H315     H      0.432590000000     0.561120000000     0.145670000000     0.0411661  
H316     H      0.316690000000     0.544560000000     0.138380000000     0.0456233  
H317     H      0.377230000000     0.547060000000     0.216160000000     0.0396743  
H318     H      0.336370000000     0.546600000000     0.184760000000     0.0400141  
H319     H      0.330160000000     0.576070000000     0.122970000000     0.049036   
H320     H      0.415830000000     0.019790000000     0.226940000000     0.10345    
H321     H      0.012910000000     0.671750000000     0.443670000000     0.107912   
H322     H      0.516310000000     0.576900000000     0.372700000000     0.0485488  
H323     H      0.483150000000     0.578010000000     0.354830000000     0.0445773  
H324     H      0.447650000000     0.658030000000     0.400970000000     0.040429   
H325     H      0.454090000000     0.612450000000     0.377660000000     0.0388958  
H326     H      0.498940000000     0.715200000000     0.403610000000     0.0449738  
H327     H      0.041460000000     0.629610000000     0.365070000000     0.044829   
H328     H      0.036180000000     0.675500000000     0.387830000000     0.0425726  
H329     H      0.466270000000     0.702750000000     0.417610000000     0.0460482  
H330     H      0.019480000000     0.610410000000     0.319930000000     0.104848   
H331     H      0.045650000000     0.832610000000     0.421330000000     0.104058   
H332     H      0.520530000000     0.883970000000     0.290960000000     0.0419786  
H333     H      0.488610000000     0.896760000000     0.306900000000     0.0517603  
H334     H      0.555330000000     0.813990000000     0.352610000000     0.039361   
H335     H      0.551980000000     0.850810000000     0.316670000000     0.0401431  
H336     H      0.497570000000     0.795250000000     0.400480000000     0.0527023  
H337     H      0.475900000000     0.882340000000     0.355460000000     0.0433049  
H338     H      0.479220000000     0.845470000000     0.391390000000     0.0444316  
H339     H      0.532280000000     0.786220000000     0.388990000000     0.0396586  
H340     H      0.042880000000     0.915370000000     0.334720000000     0.105825   
H341     H      0.018260000000     0.818040000000     0.116040000000     0.104503   
H342     H      0.462950000000     0.917040000000     0.206020000000     0.0503171  
H343     H      0.488850000000     0.893280000000     0.219730000000     0.0444215  
H344     H      0.481850000000     0.902060000000     0.104260000000     0.0412842  
H345     H      0.480250000000     0.928160000000     0.148360000000     0.0455581  
H346     H      0.466250000000     0.831480000000     0.094250000000     0.0411765  
H347     H      0.983030000000     0.849610000000     0.195510000000     0.0395138  
H348     H      0.982250000000     0.822460000000     0.151920000000     0.0403212  
H349     H      0.485650000000     0.859460000000     0.078460000000     0.0496324  
H350     H      0.019760000000     0.928850000000     0.182850000000     0.104425   
H351     H      0.052820000000     0.609480000000     0.203640000000     0.105655   
H352     H      0.094240000000     0.661410000000     0.079880000000     0.0384911  
H353     H      0.059350000000     0.659440000000     0.065400000000     0.0570877  
H354     H      0.080180000000     0.593260000000     0.148960000000     0.0427832  
H355     H      0.099360000000     0.624530000000     0.112850000000     0.0394246  
H356     H      0.004010000000     0.597180000000     0.174690000000     0.041328   
H357     H      0.519340000000     0.669670000000     0.110490000000     0.0490104  
H358     H      0.500230000000     0.638690000000     0.146940000000     0.0397383  
H359     H      0.026880000000     0.571230000000     0.160080000000     0.0513834  
H360     H      0.078960000000     0.705010000000     0.106560000000     0.104177   
H361     H      0.432200000000     0.838370000000     0.471090000000     0.103902   
H362     H      0.366150000000     0.942500000000     0.549340000000     0.0419063  
H363     H      0.380620000000     0.970490000000     0.022450000000     0.0542173  
H364     H      0.426020000000     0.917260000000     0.949980000000     0.0388077  
H365     H      0.391290000000     0.949070000000     0.971180000000     0.0433105  
H366     H      0.457840000000     0.878970000000     0.952560000000     0.0386304  
H367     H      0.396530000000     0.902560000000     0.048530000000     0.0401625  
H368     H      0.431550000000     0.870860000000     0.027420000000     0.0473765  
H369     H      0.474760000000     0.879950000000     0.985950000000     0.0554759  
H370     H      0.334900000000     0.926980000000     0.505250000000     0.105668   
H371     H      0.443180000000     0.695490000000     0.546840000000     0.104231   
H372     H      0.315910000000     0.638990000000     0.558470000000     0.0507816  
H373     H      0.304390000000     0.652010000000     0.019040000000     0.0400095  
H374     H      0.390800000000     0.697080000000     0.079250000000     0.0400514  
H375     H      0.352600000000     0.662040000000     0.078300000000     0.0416934  
H376     H      0.410590000000     0.741600000000     0.017020000000     0.0530127  
H377     H      0.343840000000     0.673960000000     0.989250000000     0.0401845  
H378     H      0.382310000000     0.708680000000     0.990140000000     0.0438951  
H379     H      0.409370000000     0.741010000000     0.054250000000     0.039216   
H380     H      0.350520000000     0.615730000000     0.511320000000     0.105032   
H381     H      0.205000000000     0.932030000000     0.509450000000     0.10601    
H382     H      0.094850000000     0.854510000000     0.476240000000     0.0571121  
H383     H      0.118840000000     0.848080000000     0.970190000000     0.0390531  
H384     H      0.140200000000     0.920040000000     0.058030000000     0.0402703  
H385     H      0.114420000000     0.877890000000     0.043330000000     0.048256   
H386     H      0.161220000000     0.976000000000     0.014870000000     0.0514934  
H387     H      0.137110000000     0.894570000000     0.957370000000     0.0404603  
H388     H      0.162130000000     0.937230000000     0.972100000000     0.0453464  
H389     H      0.169100000000     0.960140000000     0.047890000000     0.0409669  
H390     H      0.131390000000     0.823110000000     0.519380000000     0.101594   
H391     H      0.114230000000     0.704540000000     0.986750000000     0.104676   
H392     H      0.246230000000     0.654480000000     0.028670000000     0.0426819  
H393     H      0.224900000000     0.641730000000     0.557410000000     0.0491235  
H394     H      0.191360000000     0.720320000000     0.478940000000     0.0393516  
H395     H      0.225870000000     0.683540000000     0.490600000000     0.039985   
H396     H      0.141630000000     0.749760000000     0.526010000000     0.0564067  
H397     H      0.177590000000     0.662260000000     0.564210000000     0.0417648  
H398     H      0.143120000000     0.699230000000     0.552680000000     0.0479994  
H399     H      0.150570000000     0.747600000000     0.489770000000     0.0381145  
H400     H      0.202430000000     0.624050000000     0.001730000000     0.106488   
H401     H      0.430520000000     0.979770000000     0.843280000000     0.105343   
H402     H      0.360540000000     0.056830000000     0.946530000000     0.0567211  
H403     H      0.347060000000     0.563390000000     0.915210000000     0.0375913  
H404     H      0.422790000000     0.976720000000     0.921970000000     0.0380133  
H405     H      0.380330000000     0.998130000000     0.942400000000     0.0497373  
H406     H      0.472570000000     0.510070000000     0.880690000000     0.0536148  
H407     H      0.385900000000     0.563910000000     0.883200000000     0.0387651  
H408     H      0.428280000000     0.542400000000     0.862710000000     0.0435477  
H409     H      0.461700000000     0.977670000000     0.890110000000     0.0410612  
H410     H      0.323430000000     0.015340000000     0.913620000000     0.10342    
H411     H      0.212840000000     0.549400000000     0.922290000000     0.104538   
H412     H      0.135790000000     0.547220000000     0.815410000000     0.0510328  
H413     H      0.150150000000     0.016620000000     0.794060000000     0.0444364  
H414     H      0.235700000000     0.012040000000     0.844380000000     0.0392283  
H415     H      0.199300000000     0.016620000000     0.808080000000     0.0393081  
H416     H      0.228570000000     0.989160000000     0.908560000000     0.0523153  
H417     H      0.135120000000     0.023580000000     0.871990000000     0.0463006  
H418     H      0.171130000000     0.017370000000     0.908060000000     0.0462568  
H419     H      0.250040000000     0.015840000000     0.892810000000     0.0440543  
H420     H      0.118240000000     0.491040000000     0.837200000000     0.104761   
H421     H      0.128620000000     0.510230000000     0.718040000000     0.103744   
H422     H      0.162870000000     0.017300000000     0.570860000000     0.0521618  
H423     H      0.152100000000     0.052590000000     0.579920000000     0.0425281  
H424     H      0.156750000000     0.964740000000     0.656350000000     0.0400528  
H425     H      0.178830000000     0.985680000000     0.614860000000     0.0434716  
H426     H      0.089350000000     0.977190000000     0.678730000000     0.0567905  
H427     H      0.119910000000     0.553090000000     0.618710000000     0.0392283  
H428     H      0.097440000000     0.532270000000     0.660120000000     0.0494956  
H429     H      0.122140000000     0.964670000000     0.692440000000     0.03786    
H430     H      0.199640000000     0.546560000000     0.613150000000     0.104702   
H431     H      0.357950000000     0.023670000000     0.599650000000     0.104643   
H432     H      0.453820000000     0.054120000000     0.688400000000     0.0523872  
H433     H      0.432350000000     0.569830000000     0.716240000000     0.0398289  
H434     H      0.391020000000     0.560570000000     0.614400000000     0.0449114  
H435     H      0.432340000000     0.559190000000     0.645110000000     0.0410431  
H436     H      0.316330000000     0.543090000000     0.639050000000     0.045482   
H437     H      0.377550000000     0.546490000000     0.716290000000     0.0396477  
H438     H      0.336390000000     0.545920000000     0.685270000000     0.0399562  
H439     H      0.329630000000     0.574510000000     0.623310000000     0.0491404  
H440     H      0.415870000000     0.018620000000     0.726550000000     0.103411   
H441     H      0.010570000000     0.669960000000     0.945370000000     0.107968   
H442     H      0.516570000000     0.575290000000     0.873970000000     0.0483822  
H443     H      0.483350000000     0.575890000000     0.856160000000     0.0446858  
H444     H      0.446370000000     0.655520000000     0.901770000000     0.0403767  
H445     H      0.453600000000     0.610080000000     0.878430000000     0.0388467  
H446     H      0.496940000000     0.713230000000     0.905110000000     0.0453887  
H447     H      0.040760000000     0.628240000000     0.866780000000     0.0447671  
H448     H      0.034850000000     0.674020000000     0.889640000000     0.0427101  
H449     H      0.464270000000     0.700370000000     0.918760000000     0.0457739  
H450     H      0.019110000000     0.609180000000     0.821210000000     0.104837   
H451     H      0.043750000000     0.832130000000     0.922040000000     0.104146   
H452     H      0.519530000000     0.882820000000     0.791190000000     0.0420588  
H453     H      0.487770000000     0.895900000000     0.807190000000     0.0518033  
H454     H      0.554200000000     0.812860000000     0.853000000000     0.0393993  
H455     H      0.551020000000     0.849690000000     0.817050000000     0.0401879  
H456     H      0.496340000000     0.794000000000     0.900570000000     0.0525239  
H457     H      0.474780000000     0.881240000000     0.855530000000     0.0431583  
H458     H      0.477920000000     0.844350000000     0.891450000000     0.0441635  
H459     H      0.531280000000     0.785260000000     0.889510000000     0.0397275  
H460     H      0.042320000000     0.914210000000     0.834940000000     0.105899   
H461     H      0.018630000000     0.819150000000     0.615410000000     0.10447    
H462     H      0.462340000000     0.917500000000     0.705150000000     0.0502798  
H463     H      0.487210000000     0.892710000000     0.718950000000     0.0443941  
H464     H      0.484030000000     0.904050000000     0.603580000000     0.04131    
H465     H      0.481470000000     0.929280000000     0.648130000000     0.0456475  
H466     H      0.467410000000     0.834190000000     0.591270000000     0.041239   
H467     H      0.981120000000     0.849620000000     0.693810000000     0.0395782  
H468     H      0.981190000000     0.823320000000     0.649710000000     0.0403775  
H469     H      0.488440000000     0.861890000000     0.577090000000     0.0495938  
H470     H      0.020150000000     0.928040000000     0.683460000000     0.104598   
H471     H      0.052010000000     0.608790000000     0.704190000000     0.105718   
H472     H      0.092070000000     0.660380000000     0.579440000000     0.0392022  
H473     H      0.056780000000     0.658960000000     0.565870000000     0.0570905  
H474     H      0.079190000000     0.592540000000     0.649060000000     0.0428403  
H475     H      0.097880000000     0.623860000000     0.612730000000     0.0395239  
H476     H      0.003220000000     0.596110000000     0.675390000000     0.0413127  
H477     H      0.517360000000     0.668690000000     0.611470000000     0.0483341  
H478     H      0.498870000000     0.637670000000     0.648190000000     0.0396619  
H479     H      0.026230000000     0.570340000000     0.660710000000     0.0514087  
H480     H      0.077020000000     0.703910000000     0.607360000000     0.104281   
H481     H      0.928880000000     0.334390000000     0.967010000000     0.103515   
H482     H      0.867830000000     0.441440000000     0.049020000000     0.0418042  
H483     H      0.877370000000     0.466290000000     0.528280000000     0.055065   
H484     H      0.925050000000     0.417740000000     0.453610000000     0.0385575  
H485     H      0.888860000000     0.447490000000     0.475380000000     0.0442124  
H486     H      0.958200000000     0.380460000000     0.455350000000     0.0388157  
H487     H      0.894400000000     0.398160000000     0.550970000000     0.0400403  
H488     H      0.930870000000     0.368540000000     0.529310000000     0.0469706  
H489     H      0.974370000000     0.380310000000     0.489120000000     0.0552723  
H490     H      0.834560000000     0.426080000000     0.006400000000     0.105735   
H491     H      0.942070000000     0.196060000000     0.050400000000     0.104009   
H492     H      0.811990000000     0.141070000000     0.053040000000     0.0520091  
H493     H      0.804330000000     0.149870000000     0.523170000000     0.041395   
H494     H      0.892580000000     0.197570000000     0.577340000000     0.0401641  
H495     H      0.854730000000     0.162190000000     0.579030000000     0.0410668  
H496     H      0.910980000000     0.238650000000     0.512180000000     0.0528027  
H497     H      0.843240000000     0.170050000000     0.489840000000     0.0403004  
H498     H      0.881410000000     0.205060000000     0.488080000000     0.0428682  
H499     H      0.909650000000     0.240930000000     0.549330000000     0.0400177  
H500     H      0.848880000000     0.117080000000     0.007210000000     0.10463    
H501     H      0.706320000000     0.431910000000     0.014140000000     0.105712   
H502     H      0.588000000000     0.361610000000     0.981060000000     0.0583702  
H503     H      0.631110000000     0.341740000000     0.471270000000     0.0367965  
H504     H      0.650740000000     0.413660000000     0.553710000000     0.0408408  
H505     H      0.629640000000     0.368660000000     0.540930000000     0.0469749  
H506     H      0.657770000000     0.475140000000     0.507430000000     0.04969    
H507     H      0.625820000000     0.395450000000     0.454530000000     0.0407047  
H508     H      0.646650000000     0.440770000000     0.467740000000     0.0434429  
H509     H      0.665110000000     0.461550000000     0.541440000000     0.0419985  
H510     H      0.627940000000     0.327000000000     0.018460000000     0.10291    
H511     H      0.614740000000     0.204620000000     0.487050000000     0.104406   
H512     H      0.746290000000     0.152850000000     0.527320000000     0.0426607  
H513     H      0.723950000000     0.142130000000     0.055520000000     0.0489726  
H514     H      0.689270000000     0.219850000000     0.976670000000     0.039274   
H515     H      0.724240000000     0.183550000000     0.988440000000     0.0402937  
H516     H      0.640010000000     0.249430000000     0.023520000000     0.0566363  
H517     H      0.676390000000     0.162110000000     0.062280000000     0.0415761  
H518     H      0.641460000000     0.198610000000     0.050630000000     0.0478772  
H519     H      0.647960000000     0.246400000000     0.987110000000     0.038645   
H520     H      0.701470000000     0.122840000000     0.501630000000     0.10657    
H521     H      0.931450000000     0.477540000000     0.342980000000     0.105      
H522     H      0.862830000000     0.552120000000     0.449710000000     0.0567089  
H523     H      0.845910000000     0.062840000000     0.414820000000     0.0376841  
H524     H      0.924450000000     0.473720000000     0.422270000000     0.0386331  
H525     H      0.882400000000     0.494770000000     0.443900000000     0.0477647  
H526     H      0.972190000000     0.012360000000     0.379170000000     0.0524753  
H527     H      0.884080000000     0.064190000000     0.382480000000     0.0389035  
H528     H      0.926730000000     0.043670000000     0.361590000000     0.0426976  
H529     H      0.962510000000     0.474890000000     0.389330000000     0.0410739  
H530     H      0.824970000000     0.512540000000     0.415560000000     0.103781   
H531     H      0.711650000000     0.049040000000     0.421660000000     0.104374   
H532     H      0.636970000000     0.046030000000     0.312560000000     0.0517731  
H533     H      0.650070000000     0.518160000000     0.294860000000     0.0452745  
H534     H      0.736010000000     0.512330000000     0.344400000000     0.0393803  
H535     H      0.699270000000     0.517080000000     0.308460000000     0.0394571  
H536     H      0.729790000000     0.489710000000     0.408330000000     0.0524191  
H537     H      0.635830000000     0.524840000000     0.373000000000     0.0458351  
H538     H      0.672160000000     0.518450000000     0.408710000000     0.0466391  
H539     H      0.750860000000     0.516810000000     0.392700000000     0.0435248  
H540     H      0.618680000000     0.989820000000     0.334670000000     0.105037   
H541     H      0.628380000000     0.011530000000     0.216630000000     0.103617   
H542     H      0.664020000000     0.515800000000     0.070800000000     0.0520677  
H543     H      0.652510000000     0.550720000000     0.079370000000     0.0431155  
H544     H      0.656270000000     0.463520000000     0.156360000000     0.0396914  
H545     H      0.678820000000     0.484150000000     0.114970000000     0.0432223  
H546     H      0.588860000000     0.476810000000     0.178560000000     0.0564977  
H547     H      0.619880000000     0.055520000000     0.117790000000     0.0387795  
H548     H      0.597200000000     0.034360000000     0.158900000000     0.049429   
H549     H      0.621760000000     0.464100000000     0.192180000000     0.0377794  
H550     H      0.699740000000     0.049150000000     0.111870000000     0.104508   
H551     H      0.858560000000     0.524440000000     0.100540000000     0.104975   
H552     H      0.953290000000     0.555330000000     0.189800000000     0.0527105  
H553     H      0.931620000000     0.071130000000     0.215110000000     0.0399122  
H554     H      0.891340000000     0.061580000000     0.113230000000     0.0449131  
H555     H      0.932460000000     0.060290000000     0.144210000000     0.0411713  
H556     H      0.816520000000     0.043920000000     0.137370000000     0.0454726  
H557     H      0.877270000000     0.047160000000     0.214990000000     0.039624   
H558     H      0.836310000000     0.046500000000     0.183710000000     0.039899   
H559     H      0.829880000000     0.075450000000     0.121900000000     0.0490611  
H560     H      0.916020000000     0.518950000000     0.227720000000     0.103568   
H561     H      0.510100000000     0.170730000000     0.445820000000     0.108041   
H562     H      0.013350000000     0.075890000000     0.371600000000     0.0491526  
H563     H      0.980410000000     0.078600000000     0.352790000000     0.0435087  
H564     H      0.946900000000     0.158300000000     0.400630000000     0.0403788  
H565     H      0.952330000000     0.112870000000     0.376790000000     0.0386949  
H566     H      0.999310000000     0.214250000000     0.403650000000     0.045026   
H567     H      0.542880000000     0.130630000000     0.367330000000     0.0441853  
H568     H      0.535640000000     0.176430000000     0.389760000000     0.0426387  
H569     H      0.966400000000     0.202420000000     0.417620000000     0.0462668  
H570     H      0.522610000000     0.110340000000     0.322320000000     0.105026   
H571     H      0.545980000000     0.331870000000     0.421320000000     0.10394    
H572     H      0.023360000000     0.383660000000     0.291210000000     0.0417014  
H573     H      0.990820000000     0.396080000000     0.306160000000     0.0519268  
H574     H      0.057300000000     0.314480000000     0.354160000000     0.0393384  
H575     H      0.054510000000     0.351090000000     0.317960000000     0.0400996  
H576     H      0.998440000000     0.295200000000     0.400450000000     0.0525013  
H577     H      0.976960000000     0.381850000000     0.354470000000     0.0432619  
H578     H      0.979710000000     0.345190000000     0.390640000000     0.0442108  
H579     H      0.033620000000     0.286620000000     0.390060000000     0.0398002  
H580     H      0.543060000000     0.415250000000     0.335460000000     0.105824   
H581     H      0.519390000000     0.319470000000     0.115980000000     0.104534   
H582     H      0.963110000000     0.415970000000     0.206670000000     0.0501899  
H583     H      0.989750000000     0.393150000000     0.220520000000     0.0446845  
H584     H      0.979510000000     0.398630000000     0.105020000000     0.0414394  
H585     H      0.978940000000     0.425930000000     0.148420000000     0.0452966  
H586     H      0.964730000000     0.326930000000     0.098040000000     0.0403221  
H587     H      0.483290000000     0.349310000000     0.195430000000     0.0395564  
H588     H      0.482760000000     0.322770000000     0.151450000000     0.0406549  
H589     H      0.982140000000     0.355490000000     0.080490000000     0.0499963  
H590     H      0.520310000000     0.428390000000     0.183810000000     0.104368   
H591     H      0.551850000000     0.110190000000     0.204080000000     0.105693   
H592     H      0.594570000000     0.161600000000     0.080620000000     0.0382393  
H593     H      0.559860000000     0.159670000000     0.065730000000     0.0570268  
H594     H      0.579460000000     0.093490000000     0.149510000000     0.0428524  
H595     H      0.599100000000     0.124540000000     0.113460000000     0.0392786  
H596     H      0.503260000000     0.098200000000     0.175010000000     0.0410197  
H597     H      0.020480000000     0.169500000000     0.109240000000     0.0493577  
H598     H      0.001060000000     0.138540000000     0.145540000000     0.0397775  
H599     H      0.525830000000     0.071950000000     0.160460000000     0.0513699  
H600     H      0.579470000000     0.205350000000     0.106780000000     0.104227   
H601     H      0.930880000000     0.336430000000     0.469340000000     0.103706   
H602     H      0.864720000000     0.438800000000     0.550790000000     0.0413848  
H603     H      0.879520000000     0.467930000000     0.024850000000     0.054358   
H604     H      0.923620000000     0.416330000000     0.950170000000     0.0386011  
H605     H      0.889270000000     0.447650000000     0.972630000000     0.0435621  
H606     H      0.954940000000     0.377580000000     0.951170000000     0.038027   
H607     H      0.896150000000     0.399710000000     0.048990000000     0.0400535  
H608     H      0.930820000000     0.368490000000     0.026620000000     0.0480158  
H609     H      0.973170000000     0.378730000000     0.983890000000     0.0554867  
H610     H      0.833200000000     0.424840000000     0.506830000000     0.10559    
H611     H      0.942860000000     0.195230000000     0.547250000000     0.104217   
H612     H      0.815280000000     0.138590000000     0.557290000000     0.0509073  
H613     H      0.804080000000     0.151680000000     0.017610000000     0.0399059  
H614     H      0.890010000000     0.196310000000     0.078800000000     0.0400116  
H615     H      0.851790000000     0.161320000000     0.077360000000     0.0417683  
H616     H      0.910260000000     0.241220000000     0.017020000000     0.0530107  
H617     H      0.843830000000     0.173660000000     0.988290000000     0.0401307  
H618     H      0.882320000000     0.208350000000     0.989680000000     0.0439888  
H619     H      0.908810000000     0.240320000000     0.054230000000     0.0390235  
H620     H      0.850200000000     0.115340000000     0.510280000000     0.104931   
H621     H      0.703710000000     0.431720000000     0.508090000000     0.106058   
H622     H      0.595450000000     0.353070000000     0.475140000000     0.056774   
H623     H      0.620350000000     0.346660000000     0.969180000000     0.0385913  
H624     H      0.640230000000     0.419050000000     0.056550000000     0.0402876  
H625     H      0.615370000000     0.376320000000     0.042040000000     0.0482706  
H626     H      0.660130000000     0.475820000000     0.012600000000     0.0508816  
H627     H      0.635500000000     0.394510000000     0.955730000000     0.0404171  
H628     H      0.659610000000     0.437730000000     0.970340000000     0.0448621  
H629     H      0.667130000000     0.460520000000     0.046040000000     0.0408739  
H630     H      0.631610000000     0.322360000000     0.518970000000     0.101339   
H631     H      0.613120000000     0.203860000000     0.986540000000     0.104505   
H632     H      0.745710000000     0.153910000000     0.027060000000     0.0426525  
H633     H      0.724760000000     0.141410000000     0.556090000000     0.049135   
H634     H      0.690180000000     0.219640000000     0.477730000000     0.0393159  
H635     H      0.724810000000     0.182870000000     0.489070000000     0.039992   
H636     H      0.641190000000     0.249330000000     0.525380000000     0.0563697  
H637     H      0.677520000000     0.161930000000     0.563390000000     0.0417229  
H638     H      0.642930000000     0.198880000000     0.552180000000     0.047927   
H639     H      0.649590000000     0.247020000000     0.489020000000     0.0380647  
H640     H      0.701670000000     0.123280000000     0.000780000000     0.106465   
H641     H      0.931230000000     0.476820000000     0.843410000000     0.104884   
H642     H      0.862350000000     0.553330000000     0.948490000000     0.0567863  
H643     H      0.845420000000     0.062850000000     0.913230000000     0.0375443  
H644     H      0.923600000000     0.473730000000     0.922520000000     0.0386066  
H645     H      0.881520000000     0.495300000000     0.943560000000     0.0480503  
H646     H      0.972060000000     0.011470000000     0.879520000000     0.0524861  
H647     H      0.884430000000     0.064220000000     0.881830000000     0.0388713  
H648     H      0.927160000000     0.043250000000     0.861540000000     0.0426087  
H649     H      0.961980000000     0.474270000000     0.889890000000     0.0409771  
H650     H      0.824470000000     0.513130000000     0.915030000000     0.103673   
H651     H      0.711730000000     0.048120000000     0.921540000000     0.104539   
H652     H      0.636850000000     0.045020000000     0.813110000000     0.0518194  
H653     H      0.650040000000     0.517400000000     0.795110000000     0.0451584  
H654     H      0.735970000000     0.511380000000     0.844660000000     0.0392842  
H655     H      0.699220000000     0.516220000000     0.808720000000     0.0394525  
H656     H      0.729470000000     0.488750000000     0.908950000000     0.0518062  
H657     H      0.635770000000     0.523680000000     0.873270000000     0.0459618  
H658     H      0.672110000000     0.517230000000     0.908980000000     0.0464863  
H659     H      0.750830000000     0.515380000000     0.892940000000     0.0436367  
H660     H      0.618740000000     0.988550000000     0.834720000000     0.105092   
H661     H      0.628400000000     0.011200000000     0.717300000000     0.10355    
H662     H      0.663500000000     0.514610000000     0.571230000000     0.051955   
H663     H      0.651900000000     0.549540000000     0.579710000000     0.0432249  
H664     H      0.656540000000     0.462900000000     0.657310000000     0.0397245  
H665     H      0.678720000000     0.483340000000     0.615630000000     0.0432178  
H666     H      0.589200000000     0.475710000000     0.679700000000     0.0565855  
H667     H      0.619230000000     0.054150000000     0.618020000000     0.0388304  
H668     H      0.596890000000     0.033220000000     0.659440000000     0.0495068  
H669     H      0.622310000000     0.463590000000     0.693370000000     0.037772   
H670     H      0.699160000000     0.048010000000     0.612070000000     0.104616   
H671     H      0.857560000000     0.522480000000     0.601130000000     0.104946   
H672     H      0.953250000000     0.553700000000     0.689190000000     0.0525506  
H673     H      0.931950000000     0.069950000000     0.714500000000     0.0400162  
H674     H      0.890520000000     0.059570000000     0.613090000000     0.0449728  
H675     H      0.931940000000     0.058420000000     0.643700000000     0.0410533  
H676     H      0.815930000000     0.042250000000     0.638070000000     0.0453198  
H677     H      0.877360000000     0.046460000000     0.715140000000     0.0396159  
H678     H      0.836090000000     0.045630000000     0.684250000000     0.0398443  
H679     H      0.829040000000     0.073740000000     0.622300000000     0.0492799  
H680     H      0.915950000000     0.517800000000     0.727470000000     0.103596   
H681     H      0.507720000000     0.168840000000     0.947630000000     0.108046   
H682     H      0.013300000000     0.074460000000     0.872610000000     0.0490714  
H683     H      0.980300000000     0.076770000000     0.853830000000     0.0436003  
H684     H      0.945570000000     0.156140000000     0.901300000000     0.0403629  
H685     H      0.951650000000     0.110840000000     0.877390000000     0.0386875  
H686     H      0.997390000000     0.212540000000     0.904900000000     0.0453756  
H687     H      0.542340000000     0.129250000000     0.869220000000     0.0441074  
H688     H      0.534330000000     0.174890000000     0.891740000000     0.042796   
H689     H      0.964490000000     0.200360000000     0.918610000000     0.0460645  
H690     H      0.522590000000     0.109020000000     0.823780000000     0.10494    
H691     H      0.543950000000     0.331270000000     0.921940000000     0.104075   
H692     H      0.022470000000     0.382550000000     0.791550000000     0.0417802  
H693     H      0.990060000000     0.395210000000     0.806580000000     0.0519378  
H694     H      0.056400000000     0.313500000000     0.854680000000     0.0394212  
H695     H      0.053720000000     0.350090000000     0.818470000000     0.0401405  
H696     H      0.997470000000     0.293980000000     0.900620000000     0.0524096  
H697     H      0.976010000000     0.380790000000     0.854690000000     0.0431379  
H698     H      0.978650000000     0.344130000000     0.890880000000     0.044013   
H699     H      0.032890000000     0.285780000000     0.890720000000     0.0398711  
H700     H      0.542520000000     0.413860000000     0.835630000000     0.105787   
H701     H      0.519660000000     0.320770000000     0.615410000000     0.104576   
H702     H      0.962700000000     0.416100000000     0.705980000000     0.0501841  
H703     H      0.988510000000     0.392410000000     0.719920000000     0.0446755  
H704     H      0.981480000000     0.400310000000     0.604360000000     0.04146    
H705     H      0.980040000000     0.426760000000     0.648260000000     0.0454397  
H706     H      0.965930000000     0.329120000000     0.595320000000     0.0404766  
H707     H      0.481040000000     0.349270000000     0.693700000000     0.0395807  
H708     H      0.481400000000     0.323730000000     0.649150000000     0.0407972  
H709     H      0.984730000000     0.357620000000     0.579080000000     0.0500585  
H710     H      0.520740000000     0.427260000000     0.684740000000     0.10446    
H711     H      0.551170000000     0.109490000000     0.704790000000     0.105672   
H712     H      0.592200000000     0.160630000000     0.580190000000     0.038982   
H713     H      0.557040000000     0.159230000000     0.566300000000     0.057053   
H714     H      0.578460000000     0.092840000000     0.649710000000     0.0428659  
H715     H      0.597520000000     0.123950000000     0.613390000000     0.0393707  
H716     H      0.502500000000     0.097200000000     0.675970000000     0.0409743  
H717     H      0.019100000000     0.168900000000     0.610190000000     0.0487575  
H718     H      0.000140000000     0.137880000000     0.646680000000     0.0397318  
H719     H      0.525160000000     0.071130000000     0.661250000000     0.0513796  
H720     H      0.577330000000     0.204280000000     0.607680000000     0.104281   
H721     H      0.929280000000     0.834970000000     0.967580000000     0.103556   
H722     H      0.868110000000     0.942890000000     0.047940000000     0.0420526  
H723     H      0.877620000000     0.967360000000     0.526830000000     0.0551108  
H724     H      0.926120000000     0.917910000000     0.453440000000     0.038743   
H725     H      0.889670000000     0.947930000000     0.474450000000     0.044137   
H726     H      0.959570000000     0.880950000000     0.456170000000     0.0391662  
H727     H      0.894180000000     0.899380000000     0.550610000000     0.0400491  
H728     H      0.930900000000     0.869510000000     0.529710000000     0.0466517  
H729     H      0.974920000000     0.880660000000     0.490310000000     0.0552585  
H730     H      0.834960000000     0.926860000000     0.005290000000     0.105817   
H731     H      0.942610000000     0.695540000000     0.049580000000     0.104013   
H732     H      0.812850000000     0.640470000000     0.054370000000     0.0517645  
H733     H      0.804750000000     0.649080000000     0.524410000000     0.0415985  
H734     H      0.893600000000     0.697350000000     0.577120000000     0.0401965  
H735     H      0.855800000000     0.661950000000     0.579540000000     0.0409859  
H736     H      0.911280000000     0.737800000000     0.511350000000     0.0526641  
H737     H      0.843240000000     0.669070000000     0.490430000000     0.0403839  
H738     H      0.881350000000     0.704100000000     0.487940000000     0.0426866  
H739     H      0.910220000000     0.740580000000     0.548460000000     0.0402404  
H740     H      0.849400000000     0.616350000000     0.008440000000     0.104737   
H741     H      0.706590000000     0.931840000000     0.013510000000     0.105845   
H742     H      0.590220000000     0.859660000000     0.979570000000     0.0582521  
H743     H      0.634000000000     0.840250000000     0.472550000000     0.0365478  
H744     H      0.654090000000     0.912430000000     0.553070000000     0.0410201  
H745     H      0.633870000000     0.866930000000     0.540760000000     0.0464521  
H746     H      0.657610000000     0.974560000000     0.506630000000     0.0497042  
H747     H      0.624120000000     0.894840000000     0.455170000000     0.0409873  
H748     H      0.644260000000     0.940600000000     0.467910000000     0.0433457  
H749     H      0.665510000000     0.961370000000     0.540660000000     0.0425491  
H750     H      0.629130000000     0.825830000000     0.018710000000     0.102698   
H751     H      0.615740000000     0.704860000000     0.487890000000     0.104515   
H752     H      0.746850000000     0.652690000000     0.528760000000     0.0426361  
H753     H      0.724220000000     0.641690000000     0.056770000000     0.0490474  
H754     H      0.690280000000     0.720120000000     0.978290000000     0.0392128  
H755     H      0.725140000000     0.683700000000     0.990080000000     0.0403325  
H756     H      0.640540000000     0.749250000000     0.024980000000     0.0565678  
H757     H      0.676580000000     0.661610000000     0.063260000000     0.0417134  
H758     H      0.641760000000     0.698220000000     0.051620000000     0.0477814  
H759     H      0.648920000000     0.746640000000     0.988640000000     0.0385781  
H760     H      0.702260000000     0.622930000000     0.502530000000     0.10662    
H761     H      0.930850000000     0.979690000000     0.342530000000     0.105361   
H762     H      0.861210000000     0.054380000000     0.448080000000     0.0566841  
H763     H      0.847260000000     0.561820000000     0.416960000000     0.037741   
H764     H      0.923870000000     0.975820000000     0.421560000000     0.0381345  
H765     H      0.881480000000     0.996590000000     0.442790000000     0.0492882  
H766     H      0.972530000000     0.510110000000     0.380080000000     0.0537055  
H767     H      0.885060000000     0.562560000000     0.383810000000     0.0387126  
H768     H      0.927400000000     0.541760000000     0.362510000000     0.0436352  
H769     H      0.962300000000     0.977490000000     0.389210000000     0.0411831  
H770     H      0.824100000000     0.013670000000     0.414280000000     0.103628   
H771     H      0.712980000000     0.549370000000     0.422230000000     0.104444   
H772     H      0.636390000000     0.547100000000     0.314500000000     0.0511652  
H773     H      0.650500000000     0.016280000000     0.293460000000     0.0442925  
H774     H      0.736090000000     0.012610000000     0.343770000000     0.039292   
H775     H      0.699680000000     0.016840000000     0.307450000000     0.0392681  
H776     H      0.729440000000     0.989770000000     0.407490000000     0.0532235  
H777     H      0.635460000000     0.023860000000     0.371320000000     0.0462411  
H778     H      0.671480000000     0.017970000000     0.407410000000     0.0464883  
H779     H      0.750360000000     0.017170000000     0.392230000000     0.0437893  
H780     H      0.618350000000     0.491260000000     0.336900000000     0.10465    
H781     H      0.628500000000     0.510390000000     0.217170000000     0.103761   
H782     H      0.663150000000     0.017970000000     0.070370000000     0.0522513  
H783     H      0.652510000000     0.053300000000     0.079440000000     0.0424045  
H784     H      0.656330000000     0.965160000000     0.155560000000     0.0400431  
H785     H      0.678740000000     0.986130000000     0.114250000000     0.0434745  
H786     H      0.588880000000     0.978190000000     0.177790000000     0.0567153  
H787     H      0.620420000000     0.553920000000     0.118150000000     0.0392167  
H788     H      0.597580000000     0.533120000000     0.159370000000     0.0492855  
H789     H      0.621480000000     0.965120000000     0.191450000000     0.0378973  
H790     H      0.699940000000     0.546920000000     0.112660000000     0.104697   
H791     H      0.858450000000     0.024620000000     0.099310000000     0.104774   
H792     H      0.953570000000     0.055490000000     0.188850000000     0.0525616  
H793     H      0.931660000000     0.570670000000     0.216660000000     0.0397514  
H794     H      0.891250000000     0.561890000000     0.114420000000     0.044957   
H795     H      0.932370000000     0.560620000000     0.145410000000     0.0412214  
H796     H      0.816490000000     0.543820000000     0.138440000000     0.0455891  
H797     H      0.877210000000     0.546690000000     0.216080000000     0.0396558  
H798     H      0.836260000000     0.546060000000     0.184770000000     0.0399845  
H799     H      0.829860000000     0.575300000000     0.122880000000     0.0490822  
H800     H      0.915870000000     0.019350000000     0.226710000000     0.103457   
H801     H      0.511730000000     0.671720000000     0.444540000000     0.107968   
H802     H      0.012760000000     0.576270000000     0.371240000000     0.0493405  
H803     H      0.979930000000     0.579270000000     0.352290000000     0.0434066  
H804     H      0.947300000000     0.659150000000     0.400490000000     0.0404323  
H805     H      0.952280000000     0.613630000000     0.376730000000     0.038712   
H806     H      0.999970000000     0.714890000000     0.402800000000     0.0447062  
H807     H      0.542780000000     0.631010000000     0.366100000000     0.0442224  
H808     H      0.536030000000     0.676940000000     0.388390000000     0.0425777  
H809     H      0.967160000000     0.703240000000     0.417170000000     0.0464387  
H810     H      0.522270000000     0.610450000000     0.321570000000     0.104981   
H811     H      0.546210000000     0.831710000000     0.420650000000     0.103977   
H812     H      0.021490000000     0.883850000000     0.290870000000     0.041831   
H813     H      0.989400000000     0.896590000000     0.306490000000     0.0517724  
H814     H      0.056220000000     0.814460000000     0.353230000000     0.0393806  
H815     H      0.053000000000     0.851110000000     0.317100000000     0.0401514  
H816     H      0.998050000000     0.795360000000     0.400360000000     0.0526429  
H817     H      0.976240000000     0.882220000000     0.354900000000     0.0433045  
H818     H      0.979420000000     0.845520000000     0.391010000000     0.0443445  
H819     H      0.033060000000     0.786710000000     0.389500000000     0.0397862  
H820     H      0.542270000000     0.915220000000     0.334930000000     0.105923   
H821     H      0.519640000000     0.820620000000     0.115380000000     0.104564   
H822     H      0.962830000000     0.916630000000     0.206000000000     0.0502464  
H823     H      0.989130000000     0.893490000000     0.219960000000     0.0446498  
H824     H      0.980280000000     0.899710000000     0.104400000000     0.0414325  
H825     H      0.979390000000     0.926760000000     0.147940000000     0.0454151  
H826     H      0.965010000000     0.828220000000     0.096750000000     0.0404481  
H827     H      0.482360000000     0.849960000000     0.194310000000     0.039551   
H828     H      0.482260000000     0.823780000000     0.150120000000     0.0407755  
H829     H      0.983030000000     0.856690000000     0.079640000000     0.0499784  
H830     H      0.520500000000     0.928630000000     0.183770000000     0.104405   
H831     H      0.552220000000     0.609720000000     0.204270000000     0.105632   
H832     H      0.593580000000     0.661480000000     0.080430000000     0.0385734  
H833     H      0.558670000000     0.659610000000     0.066000000000     0.0571071  
H834     H      0.579320000000     0.593340000000     0.149490000000     0.0429183  
H835     H      0.598570000000     0.624510000000     0.113330000000     0.039433   
H836     H      0.503310000000     0.597780000000     0.175580000000     0.041132   
H837     H      0.019910000000     0.669270000000     0.109800000000     0.0490827  
H838     H      0.000860000000     0.638200000000     0.146190000000     0.0397765  
H839     H      0.525830000000     0.571630000000     0.160770000000     0.051453   
H840     H      0.578350000000     0.705130000000     0.107190000000     0.10423    
H841     H      0.931360000000     0.837060000000     0.470160000000     0.103827   
H842     H      0.864870000000     0.940280000000     0.549760000000     0.0416135  
H843     H      0.879780000000     0.968980000000     0.023340000000     0.0543936  
H844     H      0.924540000000     0.916530000000     0.949790000000     0.0387567  
H845     H      0.890010000000     0.948120000000     0.971620000000     0.0435075  
H846     H      0.956060000000     0.877970000000     0.951570000000     0.0382813  
H847     H      0.896050000000     0.900890000000     0.048480000000     0.0401125  
H848     H      0.930890000000     0.869420000000     0.026750000000     0.0477246  
H849     H      0.973690000000     0.879140000000     0.984590000000     0.0555163  
H850     H      0.833620000000     0.925670000000     0.505630000000     0.105631   
H851     H      0.943430000000     0.694580000000     0.546280000000     0.104255   
H852     H      0.816200000000     0.638000000000     0.558430000000     0.0507243  
H853     H      0.804390000000     0.650920000000     0.019010000000     0.0400456  
H854     H      0.890990000000     0.696210000000     0.078750000000     0.0400469  
H855     H      0.852800000000     0.661150000000     0.078050000000     0.0416506  
H856     H      0.910520000000     0.740510000000     0.016280000000     0.0529645  
H857     H      0.843760000000     0.672720000000     0.988980000000     0.0401502  
H858     H      0.882210000000     0.707460000000     0.989620000000     0.0437724  
H859     H      0.909380000000     0.740110000000     0.053510000000     0.0392224  
H860     H      0.850760000000     0.614530000000     0.511400000000     0.10505    
H861     H      0.703900000000     0.931670000000     0.506640000000     0.106146   
H862     H      0.597950000000     0.850930000000     0.474530000000     0.0561755  
H863     H      0.623260000000     0.845100000000     0.969380000000     0.0382624  
H864     H      0.641870000000     0.917820000000     0.056220000000     0.0404147  
H865     H      0.617790000000     0.874640000000     0.041850000000     0.0482065  
H866     H      0.660100000000     0.975380000000     0.012000000000     0.0510354  
H867     H      0.635500000000     0.894140000000     0.955290000000     0.0404912  
H868     H      0.658850000000     0.937810000000     0.969820000000     0.0448797  
H869     H      0.667230000000     0.960250000000     0.045490000000     0.0412715  
H870     H      0.632620000000     0.821080000000     0.519960000000     0.101118   
H871     H      0.614090000000     0.704060000000     0.987250000000     0.104602   
H872     H      0.746220000000     0.653690000000     0.028590000000     0.0426818  
H873     H      0.725170000000     0.641010000000     0.557330000000     0.0492186  
H874     H      0.691080000000     0.719990000000     0.479510000000     0.0393     
H875     H      0.725650000000     0.683120000000     0.490720000000     0.0399641  
H876     H      0.641590000000     0.749050000000     0.527190000000     0.0562869  
H877     H      0.677800000000     0.661350000000     0.564450000000     0.0418811  
H878     H      0.643270000000     0.698390000000     0.553370000000     0.0478446  
H879     H      0.650490000000     0.747360000000     0.490920000000     0.0380261  
H880     H      0.702390000000     0.623340000000     0.001690000000     0.10651    
H881     H      0.930600000000     0.978910000000     0.842880000000     0.105307   
H882     H      0.860610000000     0.055390000000     0.946770000000     0.0567375  
H883     H      0.846960000000     0.562140000000     0.915450000000     0.0376099  
H884     H      0.922940000000     0.975640000000     0.921700000000     0.038058   
H885     H      0.880490000000     0.996870000000     0.942360000000     0.0495169  
H886     H      0.972480000000     0.509290000000     0.880440000000     0.0537745  
H887     H      0.885550000000     0.562740000000     0.883150000000     0.0387026  
H888     H      0.927930000000     0.541430000000     0.862450000000     0.0435216  
H889     H      0.961690000000     0.976770000000     0.889700000000     0.0410274  
H890     H      0.823470000000     0.013980000000     0.913810000000     0.103468   
H891     H      0.713060000000     0.548640000000     0.922030000000     0.104565   
H892     H      0.636240000000     0.546160000000     0.814950000000     0.051228   
H893     H      0.650480000000     0.015460000000     0.793780000000     0.0442133  
H894     H      0.736010000000     0.011340000000     0.844180000000     0.0392114  
H895     H      0.699640000000     0.015750000000     0.807840000000     0.0392685  
H896     H      0.728930000000     0.988540000000     0.908310000000     0.0525107  
H897     H      0.635370000000     0.022650000000     0.871670000000     0.0463234  
H898     H      0.671360000000     0.016620000000     0.907780000000     0.0463246  
H899     H      0.750280000000     0.015350000000     0.892620000000     0.043927   
H900     H      0.618470000000     0.490020000000     0.836880000000     0.104768   
H901     H      0.628520000000     0.510160000000     0.717880000000     0.103763   
H902     H      0.662620000000     0.016600000000     0.570740000000     0.0520961  
H903     H      0.651860000000     0.051930000000     0.579660000000     0.0425535  
H904     H      0.656500000000     0.964400000000     0.656440000000     0.0400749  
H905     H      0.678550000000     0.985140000000     0.614830000000     0.0434532  
H906     H      0.589140000000     0.977060000000     0.678880000000     0.0568144  
H907     H      0.619730000000     0.552630000000     0.618440000000     0.0392921  
H908     H      0.597260000000     0.532020000000     0.659960000000     0.0493319  
H909     H      0.621940000000     0.964520000000     0.692580000000     0.0378836  
H910     H      0.699410000000     0.545930000000     0.612930000000     0.104741   
H911     H      0.857380000000     0.022590000000     0.599890000000     0.104554   
H912     H      0.953460000000     0.053830000000     0.688170000000     0.0523647  
H913     H      0.932000000000     0.569510000000     0.716110000000     0.0398388  
H914     H      0.890550000000     0.559890000000     0.614300000000     0.0450153  
H915     H      0.931940000000     0.558740000000     0.644930000000     0.0411243  
H916     H      0.815970000000     0.542280000000     0.639130000000     0.0454206  
H917     H      0.877340000000     0.546040000000     0.716250000000     0.0396346  
H918     H      0.836100000000     0.545280000000     0.685310000000     0.0399198  
H919     H      0.829160000000     0.573680000000     0.623260000000     0.0492455  
H920     H      0.915780000000     0.018120000000     0.726370000000     0.103481   
H921     H      0.509220000000     0.669750000000     0.946510000000     0.108035   
H922     H      0.012720000000     0.574760000000     0.872280000000     0.0492724  
H923     H      0.979820000000     0.577350000000     0.853390000000     0.043507   
H924     H      0.945940000000     0.656930000000     0.901180000000     0.0404235  
H925     H      0.951570000000     0.611520000000     0.877360000000     0.0386841  
H926     H      0.998040000000     0.713110000000     0.904120000000     0.0451057  
H927     H      0.542240000000     0.629550000000     0.868110000000     0.044157   
H928     H      0.534730000000     0.675340000000     0.890490000000     0.0427296  
H929     H      0.965230000000     0.701120000000     0.918190000000     0.0462666  
H930     H      0.522190000000     0.609090000000     0.823100000000     0.104956   
H931     H      0.544160000000     0.831160000000     0.921180000000     0.104153   
H932     H      0.020600000000     0.882800000000     0.791190000000     0.0419425  
H933     H      0.988630000000     0.895770000000     0.806870000000     0.0517933  
H934     H      0.055310000000     0.813510000000     0.853720000000     0.0394117  
H935     H      0.052200000000     0.850150000000     0.817580000000     0.0401996  
H936     H      0.997060000000     0.794150000000     0.900470000000     0.0525275  
H937     H      0.975260000000     0.881190000000     0.855100000000     0.0431309  
H938     H      0.978330000000     0.844480000000     0.891210000000     0.0441016  
H939     H      0.032330000000     0.785900000000     0.890120000000     0.0398634  
H940     H      0.541690000000     0.913850000000     0.835060000000     0.105954   
H941     H      0.519710000000     0.821840000000     0.614840000000     0.104624   
H942     H      0.962390000000     0.916900000000     0.705160000000     0.0502001  
H943     H      0.987840000000     0.892890000000     0.719220000000     0.0446345  
H944     H      0.982370000000     0.901480000000     0.603640000000     0.0414445  
H945     H      0.980570000000     0.927710000000     0.647650000000     0.0455338  
H946     H      0.966250000000     0.830560000000     0.593910000000     0.0405704  
H947     H      0.479970000000     0.850130000000     0.692470000000     0.0396164  
H948     H      0.480760000000     0.824860000000     0.647770000000     0.0408219  
H949     H      0.985750000000     0.858880000000     0.578180000000     0.0500428  
H950     H      0.520820000000     0.927670000000     0.684520000000     0.104387   
H951     H      0.551300000000     0.608950000000     0.704910000000     0.105606   
H952     H      0.590890000000     0.660290000000     0.579860000000     0.0393827  
H953     H      0.555510000000     0.659040000000     0.566500000000     0.0570947  
H954     H      0.578120000000     0.592540000000     0.649610000000     0.042979   
H955     H      0.596740000000     0.623750000000     0.613150000000     0.0395104  
H956     H      0.502360000000     0.596570000000     0.676480000000     0.0410229  
H957     H      0.018330000000     0.668490000000     0.610680000000     0.0484894  
H958     H      0.999770000000     0.637360000000     0.647270000000     0.0396848  
H959     H      0.525010000000     0.570620000000     0.661540000000     0.0514398  
H960     H      0.575920000000     0.703840000000     0.608050000000     0.104405   
N1       N      0.450530000000     0.344830000000     0.478910000000    -0.209878   
N2       N      0.341710000000     0.445500000000     0.513670000000    -0.210203   
N3       N      0.440410000000     0.213810000000     0.535020000000    -0.211256   
N4       N      0.331530000000     0.118290000000     0.020890000000    -0.209856   
N5       N      0.197200000000     0.452660000000     0.513020000000    -0.212003   
N6       N      0.107250000000     0.335330000000     0.010960000000    -0.209672   
N7       N      0.113750000000     0.221920000000     0.999310000000    -0.208754   
N8       N      0.216990000000     0.122680000000     0.016710000000    -0.209767   
N9       N      0.450640000000     0.487410000000     0.348760000000    -0.210296   
N10      N      0.331980000000     0.524360000000     0.433080000000    -0.209292   
N11      N      0.224530000000     0.531230000000     0.425610000000    -0.210191   
N12      N      0.116760000000     0.007740000000     0.321460000000    -0.210385   
N13      N      0.109380000000     0.003910000000     0.208840000000    -0.208957   
N14      N      0.194240000000     0.042930000000     0.092030000000    -0.210507   
N15      N      0.340990000000     0.038500000000     0.100790000000    -0.21147    
N16      N      0.434730000000     0.526950000000     0.219160000000    -0.210239   
N17      N      0.501460000000     0.190660000000     0.441910000000    -0.21134    
N18      N      0.016900000000     0.090720000000     0.330170000000    -0.212286   
N19      N      0.531500000000     0.315250000000     0.422770000000    -0.208407   
N20      N      0.527460000000     0.416880000000     0.320000000000    -0.209062   
N21      N      0.009340000000     0.324390000000     0.097800000000    -0.211849   
N22      N      0.505630000000     0.429020000000     0.200210000000    -0.210695   
N23      N      0.041680000000     0.091880000000     0.196750000000    -0.210387   
N24      N      0.069670000000     0.196730000000     0.088730000000    -0.209633   
N25      N      0.448140000000     0.342980000000     0.976800000000    -0.209783   
N26      N      0.342930000000     0.446810000000     0.012640000000    -0.210166   
N27      N      0.439590000000     0.214390000000     0.038060000000    -0.211213   
N28      N      0.332030000000     0.116680000000     0.523100000000    -0.210157   
N29      N      0.199520000000     0.453060000000     0.017080000000    -0.212305   
N30      N      0.111610000000     0.331050000000     0.509500000000    -0.209105   
N31      N      0.115230000000     0.222150000000     0.500030000000    -0.20899    
N32      N      0.216900000000     0.121910000000     0.517470000000    -0.209828   
N33      N      0.450560000000     0.486660000000     0.849300000000    -0.210254   
N34      N      0.331880000000     0.525430000000     0.932420000000    -0.209214   
N35      N      0.224580000000     0.530990000000     0.925530000000    -0.210219   
N36      N      0.116620000000     0.006850000000     0.821690000000    -0.210363   
N37      N      0.109340000000     0.003330000000     0.709600000000    -0.208826   
N38      N      0.193540000000     0.041730000000     0.592320000000    -0.210596   
N39      N      0.340170000000     0.036710000000     0.601290000000    -0.211545   
N40      N      0.434830000000     0.525780000000     0.718950000000    -0.210249   
N41      N      0.499360000000     0.188820000000     0.943390000000    -0.211332   
N42      N      0.016600000000     0.089450000000     0.831220000000    -0.212351   
N43      N      0.529790000000     0.314360000000     0.923250000000    -0.208461   
N44      N      0.526840000000     0.415640000000     0.820260000000    -0.209029   
N45      N      0.010450000000     0.325630000000     0.596920000000    -0.211743   
N46      N      0.505590000000     0.428160000000     0.700700000000    -0.210776   
N47      N      0.041130000000     0.091190000000     0.697370000000    -0.210289   
N48      N      0.068350000000     0.196130000000     0.589160000000    -0.209602   
N49      N      0.451330000000     0.845450000000     0.479580000000    -0.209917   
N50      N      0.342170000000     0.946480000000     0.512480000000    -0.210213   
N51      N      0.440940000000     0.713270000000     0.534100000000    -0.211215   
N52      N      0.332050000000     0.617510000000     0.022120000000    -0.209892   
N53      N      0.197380000000     0.952540000000     0.512300000000    -0.211919   
N54      N      0.108250000000     0.834590000000     0.010900000000    -0.209739   
N55      N      0.114440000000     0.721970000000     0.000140000000    -0.209001   
N56      N      0.217440000000     0.622550000000     0.017780000000    -0.209742   
N57      N      0.450390000000     0.988730000000     0.348360000000    -0.210467   
N58      N      0.330900000000     0.025560000000     0.431690000000    -0.209225   
N59      N      0.223590000000     0.030920000000     0.425000000000    -0.210075   
N60      N      0.116640000000     0.508520000000     0.322740000000    -0.210171   
N61      N      0.109500000000     0.502840000000     0.209530000000    -0.208736   
N62      N      0.194260000000     0.541750000000     0.092570000000    -0.210415   
N63      N      0.340910000000     0.538160000000     0.102020000000    -0.211439   
N64      N      0.434710000000     0.027650000000     0.218630000000    -0.210189   
N65      N      0.502630000000     0.691510000000     0.440910000000    -0.211296   
N66      N      0.016620000000     0.590910000000     0.329750000000    -0.212328   
N67      N      0.531550000000     0.815260000000     0.422260000000    -0.208485   
N68      N      0.526560000000     0.916990000000     0.319590000000    -0.209041   
N69      N      0.009590000000     0.825210000000     0.097220000000    -0.211896   
N70      N      0.505570000000     0.929380000000     0.199940000000    -0.210687   
N71      N      0.041940000000     0.591490000000     0.196990000000    -0.210342   
N72      N      0.068930000000     0.696640000000     0.088910000000    -0.209585   
N73      N      0.448960000000     0.843650000000     0.977300000000    -0.209758   
N74      N      0.343420000000     0.947770000000     0.011470000000    -0.210115   
N75      N      0.440140000000     0.713960000000     0.037200000000    -0.211174   
N76      N      0.332590000000     0.615890000000     0.524180000000    -0.210268   
N77      N      0.199930000000     0.952920000000     0.016920000000    -0.212262   
N78      N      0.112730000000     0.830120000000     0.509890000000    -0.209187   
N79      N      0.115950000000     0.722200000000     0.500960000000    -0.208811   
N80      N      0.217440000000     0.621810000000     0.518500000000    -0.20981    
N81      N      0.450300000000     0.987940000000     0.848850000000    -0.210458   
N82      N      0.330790000000     0.026490000000     0.931040000000    -0.209046   
N83      N      0.223610000000     0.030540000000     0.925000000000    -0.210194   
N84      N      0.116560000000     0.507650000000     0.822900000000    -0.210074   
N85      N      0.109500000000     0.502320000000     0.710300000000    -0.20873    
N86      N      0.193640000000     0.540670000000     0.592900000000    -0.210521   
N87      N      0.340200000000     0.536450000000     0.602500000000    -0.211505   
N88      N      0.434810000000     0.026480000000     0.718350000000    -0.210175   
N89      N      0.500470000000     0.689620000000     0.942510000000    -0.211377   
N90      N      0.016300000000     0.589580000000     0.830850000000    -0.212261   
N91      N      0.529840000000     0.814410000000     0.922660000000    -0.208457   
N92      N      0.525930000000     0.915780000000     0.819800000000    -0.208992   
N93      N      0.010690000000     0.826470000000     0.596320000000    -0.211754   
N94      N      0.505450000000     0.928680000000     0.700280000000    -0.210652   
N95      N      0.041260000000     0.590720000000     0.697570000000    -0.210427   
N96      N      0.067450000000     0.695880000000     0.589310000000    -0.209638   
N97      N      0.949630000000     0.343880000000     0.478330000000    -0.209858   
N98      N      0.840790000000     0.444210000000     0.514080000000    -0.210156   
N99      N      0.940640000000     0.212880000000     0.534340000000    -0.211259   
N100     N      0.831580000000     0.117080000000     0.020900000000    -0.209761   
N101     N      0.696310000000     0.452270000000     0.511210000000    -0.211957   
N102     N      0.608730000000     0.333510000000     0.009710000000    -0.209526   
N103     N      0.613600000000     0.221380000000     0.999790000000    -0.208735   
N104     N      0.716830000000     0.121890000000     0.016700000000    -0.209831   
N105     N      0.950790000000     0.486730000000     0.348500000000    -0.210167   
N106     N      0.832220000000     0.523380000000     0.433220000000    -0.20914    
N107     N      0.724640000000     0.530890000000     0.425310000000    -0.210227   
N108     N      0.616900000000     0.007120000000     0.321210000000    -0.210364   
N109     N      0.609190000000     0.003830000000     0.208860000000    -0.208865   
N110     N      0.693890000000     0.042260000000     0.091890000000    -0.210469   
N111     N      0.840580000000     0.037550000000     0.100900000000    -0.211454   
N112     N      0.934760000000     0.526650000000     0.218950000000    -0.210263   
N113     N      0.002500000000     0.190700000000     0.441070000000    -0.211202   
N114     N      0.518850000000     0.090660000000     0.331450000000    -0.212324   
N115     N      0.031400000000     0.315820000000     0.423140000000    -0.208433   
N116     N      0.028110000000     0.416960000000     0.319740000000    -0.208983   
N117     N      0.510090000000     0.325800000000     0.097150000000    -0.212129   
N118     N      0.005290000000     0.429130000000     0.199580000000    -0.210745   
N119     N      0.541110000000     0.092160000000     0.197330000000    -0.210338   
N120     N      0.569240000000     0.196910000000     0.089290000000    -0.209647   
N121     N      0.947390000000     0.342170000000     0.976180000000    -0.209747   
N122     N      0.842250000000     0.445570000000     0.013240000000    -0.210143   
N123     N      0.939710000000     0.213450000000     0.037170000000    -0.211237   
N124     N      0.832250000000     0.115500000000     0.523120000000    -0.210128   
N125     N      0.698560000000     0.452500000000     0.015830000000    -0.212149   
N126     N      0.612970000000     0.329490000000     0.509510000000    -0.209101   
N127     N      0.615080000000     0.221760000000     0.500800000000    -0.208873   
N128     N      0.716780000000     0.121250000000     0.517390000000    -0.209851   
N129     N      0.950610000000     0.485960000000     0.848910000000    -0.210218   
N130     N      0.831890000000     0.524080000000     0.932550000000    -0.209132   
N131     N      0.724740000000     0.530210000000     0.925330000000    -0.2103     
N132     N      0.616890000000     0.005980000000     0.821440000000    -0.210435   
N133     N      0.609260000000     0.003290000000     0.709600000000    -0.208918   
N134     N      0.693300000000     0.041090000000     0.592110000000    -0.210724   
N135     N      0.839650000000     0.035730000000     0.601420000000    -0.211353   
N136     N      0.934730000000     0.525480000000     0.718770000000    -0.210269   
N137     N      0.000500000000     0.189050000000     0.942380000000    -0.211215   
N138     N      0.518830000000     0.089230000000     0.832700000000    -0.212211   
N139     N      0.029860000000     0.315010000000     0.923700000000    -0.208419   
N140     N      0.027540000000     0.415850000000     0.820020000000    -0.209004   
N141     N      0.511090000000     0.327240000000     0.596280000000    -0.212063   
N142     N      0.005330000000     0.428360000000     0.699940000000    -0.210733   
N143     N      0.540530000000     0.091390000000     0.698060000000    -0.210378   
N144     N      0.567570000000     0.196200000000     0.589750000000    -0.209731   
N145     N      0.950260000000     0.844390000000     0.478920000000    -0.20986    
N146     N      0.841080000000     0.945090000000     0.512870000000    -0.210165   
N147     N      0.941140000000     0.712380000000     0.533580000000    -0.211312   
N148     N      0.832050000000     0.616410000000     0.022060000000    -0.209873   
N149     N      0.696420000000     0.952130000000     0.510100000000    -0.211892   
N150     N      0.610130000000     0.832400000000     0.009580000000    -0.209551   
N151     N      0.614420000000     0.721480000000     0.000650000000    -0.209053   
N152     N      0.717390000000     0.621790000000     0.017740000000    -0.209832   
N153     N      0.950540000000     0.988050000000     0.348130000000    -0.210409   
N154     N      0.831190000000     0.024730000000     0.431860000000    -0.209213   
N155     N      0.723670000000     0.030770000000     0.424660000000    -0.210028   
N156     N      0.616800000000     0.507800000000     0.322500000000    -0.210027   
N157     N      0.609270000000     0.502700000000     0.209470000000    -0.208667   
N158     N      0.693970000000     0.541050000000     0.092400000000    -0.210398   
N159     N      0.840640000000     0.537320000000     0.102050000000    -0.211487   
N160     N      0.934720000000     0.027270000000     0.218390000000    -0.210237   
N161     N      0.003520000000     0.691430000000     0.440220000000    -0.211167   
N162     N      0.518530000000     0.590870000000     0.330920000000    -0.212256   
N163     N      0.031370000000     0.815820000000     0.422680000000    -0.208461   
N164     N      0.027160000000     0.917040000000     0.319370000000    -0.208916   
N165     N      0.510580000000     0.826880000000     0.096410000000    -0.212154   
N166     N      0.005200000000     0.929430000000     0.199360000000    -0.210597   
N167     N      0.541350000000     0.591730000000     0.197590000000    -0.210338   
N168     N      0.568400000000     0.696800000000     0.089480000000    -0.209759   
N169     N      0.947940000000     0.842650000000     0.976540000000    -0.209782   
N170     N      0.842540000000     0.946400000000     0.012090000000    -0.210185   
N171     N      0.940180000000     0.713060000000     0.036520000000    -0.211257   
N172     N      0.832770000000     0.614790000000     0.524170000000    -0.210186   
N173     N      0.698710000000     0.952370000000     0.015270000000    -0.212108   
N174     N      0.614260000000     0.828380000000     0.510120000000    -0.209183   
N175     N      0.615860000000     0.721840000000     0.501830000000    -0.208897   
N176     N      0.717410000000     0.621180000000     0.518420000000    -0.209977   
N177     N      0.950300000000     0.987230000000     0.848490000000    -0.210392   
N178     N      0.830770000000     0.025170000000     0.931220000000    -0.209166   
N179     N      0.723740000000     0.029890000000     0.924790000000    -0.210158   
N180     N      0.616810000000     0.506710000000     0.822680000000    -0.210168   
N181     N      0.609370000000     0.502220000000     0.710250000000    -0.208691   
N182     N      0.693410000000     0.540020000000     0.592690000000    -0.210589   
N183     N      0.839800000000     0.535560000000     0.602580000000    -0.211513   
N184     N      0.934660000000     0.026090000000     0.718160000000    -0.210251   
N185     N      0.001450000000     0.689710000000     0.941620000000    -0.211253   
N186     N      0.518470000000     0.589400000000     0.832240000000    -0.212313   
N187     N      0.029790000000     0.815050000000     0.923210000000    -0.208382   
N188     N      0.026570000000     0.915970000000     0.819640000000    -0.209006   
N189     N      0.511440000000     0.828270000000     0.595570000000    -0.21198    
N190     N      0.005200000000     0.928790000000     0.699600000000    -0.21076    
N191     N      0.540580000000     0.590860000000     0.698260000000    -0.210315   
N192     N      0.566490000000     0.695890000000     0.589900000000    -0.209806   
O1       O      0.061320000000     0.001710000000     0.213120000000    -0.370785   
O2       O      0.535160000000     0.463960000000     0.319180000000    -0.36833    
O3       O      0.088590000000     0.031830000000     0.290980000000    -0.367359   
O4       O      0.490780000000     0.452090000000     0.239380000000    -0.368124   
O5       O      0.069730000000     0.499560000000     0.319810000000    -0.377774   
O6       O      0.021770000000     0.472450000000     0.210170000000    -0.378197   
O7       O      0.503450000000     0.445540000000     0.289780000000    -0.36856    
O8       O      0.086360000000     0.027220000000     0.243470000000    -0.365771   
O9       O      0.482890000000     0.024720000000     0.218250000000    -0.368351   
O10      O      0.521980000000     0.042980000000     0.327190000000    -0.37045    
O11      O      0.052720000000     0.070620000000     0.237940000000    -0.363107   
O12      O      0.465320000000     0.481430000000     0.303960000000    -0.365708   
O13      O      0.495440000000     0.499100000000     0.335340000000    -0.361494   
O14      O      0.027350000000     0.047100000000     0.206270000000    -0.362572   
O15      O      0.458250000000     0.497590000000     0.248330000000    -0.370935   
O16      O      0.038650000000     0.070740000000     0.293030000000    -0.376068   
O17      O      0.016050000000     0.517680000000     0.270200000000    -0.584315   
O18      O      0.045290000000     0.204850000000     0.048340000000    -0.36402    
O19      O      0.493500000000     0.334110000000     0.497760000000    -0.362508   
O20      O      0.038960000000     0.294690000000     0.075220000000    -0.378371   
O21      O      0.461960000000     0.246540000000     0.507540000000    -0.373357   
O22      O      0.510430000000     0.322100000000     0.049580000000    -0.377433   
O23      O      0.487110000000     0.214020000000     0.031030000000    -0.371828   
O24      O      0.466010000000     0.299560000000     0.481620000000    -0.363063   
O25      O      0.062970000000     0.241140000000     0.072210000000    -0.364882   
O26      O      0.018800000000     0.203400000000     0.483460000000    -0.372147   
O27      O      0.063950000000     0.325820000000     0.505220000000    -0.370566   
O28      O      0.088710000000     0.253240000000     0.025620000000    -0.364923   
O29      O      0.507560000000     0.284720000000     0.451200000000    -0.368273   
O30      O      0.534980000000     0.317980000000     0.469980000000    -0.360961   
O31      O      0.065960000000     0.218590000000     0.003580000000    -0.372893   
O32      O      0.493310000000     0.234760000000     0.459200000000    -0.368098   
O33      O      0.085670000000     0.299110000000     0.033480000000    -0.364557   
O34      O      0.515590000000     0.268740000000     0.024190000000    -0.578096   
O35      O      0.332140000000     0.029760000000     0.055150000000    -0.369445   
O36      O      0.207490000000     0.499480000000     0.513490000000    -0.3677     
O37      O      0.238690000000     0.052960000000     0.076940000000    -0.372876   
O38      O      0.300610000000     0.465490000000     0.499260000000    -0.369848   
O39      O      0.206750000000     0.537170000000     0.046750000000    -0.360437   
O40      O      0.334300000000     0.493670000000     0.018950000000    -0.36389    
O41      O      0.240860000000     0.468440000000     0.501670000000    -0.37691    
O42      O      0.300500000000     0.054100000000     0.080030000000    -0.37166    
O43      O      0.325940000000     0.034900000000     0.478220000000    -0.375352   
O44      O      0.220290000000     0.075500000000     0.507550000000    -0.371573   
O45      O      0.296140000000     0.092920000000     0.041140000000    -0.366349   
O46      O      0.250550000000     0.504770000000     0.456050000000    -0.364125   
O47      O      0.225880000000     0.541530000000     0.471760000000    -0.379889   
O48      O      0.327490000000     0.071360000000     0.013540000000    -0.374629   
O49      O      0.297570000000     0.503350000000     0.458820000000    -0.363158   
O50      O      0.248060000000     0.094630000000     0.040490000000    -0.361156   
O51      O      0.271200000000     0.522630000000     0.026890000000    -0.594054   
O52      O      0.061290000000     0.000920000000     0.713810000000    -0.370804   
O53      O      0.534940000000     0.462650000000     0.819450000000    -0.368793   
O54      O      0.088310000000     0.031110000000     0.791490000000    -0.367229   
O55      O      0.490280000000     0.451390000000     0.739620000000    -0.367789   
O56      O      0.069680000000     0.498480000000     0.819990000000    -0.378112   
O57      O      0.022090000000     0.471460000000     0.710910000000    -0.378443   
O58      O      0.502910000000     0.444540000000     0.790200000000    -0.368859   
O59      O      0.086140000000     0.026740000000     0.744060000000    -0.365256   
O60      O      0.482990000000     0.023640000000     0.718410000000    -0.368041   
O61      O      0.522020000000     0.041600000000     0.827990000000    -0.370012   
O62      O      0.052280000000     0.069960000000     0.738550000000    -0.363253   
O63      O      0.465120000000     0.480620000000     0.804480000000    -0.365883   
O64      O      0.495420000000     0.498050000000     0.835840000000    -0.361212   
O65      O      0.027060000000     0.046330000000     0.706850000000    -0.362754   
O66      O      0.458130000000     0.496640000000     0.748520000000    -0.370731   
O67      O      0.038300000000     0.069830000000     0.793870000000    -0.376296   
O68      O      0.015840000000     0.516750000000     0.770690000000    -0.584751   
O69      O      0.045500000000     0.204950000000     0.548050000000    -0.364487   
O70      O      0.490560000000     0.333060000000     0.997180000000    -0.363691   
O71      O      0.039840000000     0.295020000000     0.575310000000    -0.379409   
O72      O      0.460720000000     0.246110000000     0.009110000000    -0.373878   
O73      O      0.512880000000     0.323330000000     0.548760000000    -0.375983   
O74      O      0.488110000000     0.214130000000     0.529290000000    -0.37142    
O75      O      0.463990000000     0.297900000000     0.980880000000    -0.362231   
O76      O      0.062700000000     0.240780000000     0.572900000000    -0.366138   
O77      O      0.016970000000     0.202250000000     0.984570000000    -0.372413   
O78      O      0.060030000000     0.327620000000     0.006500000000    -0.371412   
O79      O      0.090040000000     0.252920000000     0.526800000000    -0.362641   
O80      O      0.506140000000     0.283440000000     0.951520000000    -0.368326   
O81      O      0.532430000000     0.317480000000     0.970470000000    -0.360374   
O82      O      0.067360000000     0.219110000000     0.503480000000    -0.373169   
O83      O      0.491630000000     0.233250000000     0.959980000000    -0.368884   
O84      O      0.087970000000     0.297410000000     0.533740000000    -0.363193   
O85      O      0.517130000000     0.269430000000     0.523890000000    -0.579036   
O86      O      0.331290000000     0.028140000000     0.555630000000    -0.368514   
O87      O      0.208890000000     0.500010000000     0.015040000000    -0.367903   
O88      O      0.237980000000     0.051750000000     0.577280000000    -0.373285   
O89      O      0.301480000000     0.466520000000     0.999000000000    -0.369639   
O90      O      0.206140000000     0.536050000000     0.547080000000    -0.361805   
O91      O      0.333240000000     0.492370000000     0.519850000000    -0.364379   
O92      O      0.242520000000     0.469060000000     0.003770000000    -0.377503   
O93      O      0.299780000000     0.052580000000     0.580540000000    -0.370786   
O94      O      0.326440000000     0.035820000000     0.977630000000    -0.374487   
O95      O      0.220930000000     0.076300000000     0.006890000000    -0.37171    
O96      O      0.296000000000     0.091470000000     0.542450000000    -0.365089   
O97      O      0.250890000000     0.505000000000     0.956120000000    -0.364909   
O98      O      0.226260000000     0.541910000000     0.971520000000    -0.380538   
O99      O      0.327250000000     0.070010000000     0.514670000000    -0.374339   
O100     O      0.297740000000     0.504420000000     0.958500000000    -0.363351   
O101     O      0.247820000000     0.093530000000     0.540990000000    -0.361903   
O102     O      0.270420000000     0.521490000000     0.527110000000    -0.594418   
O103     O      0.061400000000     0.501080000000     0.213600000000    -0.370747   
O104     O      0.534830000000     0.963950000000     0.318630000000    -0.36818    
O105     O      0.088650000000     0.531840000000     0.291530000000    -0.367726   
O106     O      0.490420000000     0.952580000000     0.238940000000    -0.368289   
O107     O      0.069790000000     0.999030000000     0.318750000000    -0.377166   
O108     O      0.021810000000     0.972680000000     0.210050000000    -0.378232   
O109     O      0.502690000000     0.945890000000     0.289470000000    -0.368514   
O110     O      0.086520000000     0.526530000000     0.243940000000    -0.366101   
O111     O      0.482910000000     0.524240000000     0.218660000000    -0.368489   
O112     O      0.521740000000     0.543130000000     0.327200000000    -0.370546   
O113     O      0.053050000000     0.570200000000     0.238140000000    -0.363161   
O114     O      0.464970000000     0.982350000000     0.303590000000    -0.365805   
O115     O      0.495360000000     0.999660000000     0.334910000000    -0.360656   
O116     O      0.027470000000     0.546770000000     0.206580000000    -0.362995   
O117     O      0.458020000000     0.998120000000     0.247800000000    -0.37001    
O118     O      0.038630000000     0.570610000000     0.292940000000    -0.37586    
O119     O      0.015920000000     0.017950000000     0.269870000000    -0.584644   
O120     O      0.045270000000     0.704940000000     0.048150000000    -0.364002   
O121     O      0.494550000000     0.834360000000     0.497640000000    -0.361964   
O122     O      0.039080000000     0.795060000000     0.075090000000    -0.378674   
O123     O      0.462370000000     0.746480000000     0.507120000000    -0.373821   
O124     O      0.511360000000     0.822760000000     0.048880000000    -0.376855   
O125     O      0.487690000000     0.713920000000     0.030280000000    -0.371541   
O126     O      0.466490000000     0.800050000000     0.481980000000    -0.363461   
O127     O      0.062580000000     0.741120000000     0.072430000000    -0.365215   
O128     O      0.019780000000     0.703960000000     0.482680000000    -0.37262    
O129     O      0.065070000000     0.825270000000     0.504990000000    -0.371246   
O130     O      0.089110000000     0.753220000000     0.026260000000    -0.364409   
O131     O      0.507580000000     0.784990000000     0.450920000000    -0.368033   
O132     O      0.535690000000     0.817830000000     0.469440000000    -0.361779   
O133     O      0.066580000000     0.718790000000     0.003660000000    -0.372662   
O134     O      0.493790000000     0.735260000000     0.458750000000    -0.367856   
O135     O      0.086140000000     0.798880000000     0.033690000000    -0.36431    
O136     O      0.516140000000     0.768990000000     0.023900000000    -0.578778   
O137     O      0.332170000000     0.529190000000     0.056400000000    -0.369377   
O138     O      0.207420000000     0.999410000000     0.512940000000    -0.367435   
O139     O      0.238730000000     0.552070000000     0.077730000000    -0.372895   
O140     O      0.300810000000     0.966100000000     0.498250000000    -0.36985    
O141     O      0.206630000000     0.037610000000     0.046260000000    -0.360773   
O142     O      0.334430000000     0.994570000000     0.017730000000    -0.363267   
O143     O      0.240900000000     0.968600000000     0.500830000000    -0.37684    
O144     O      0.300500000000     0.553710000000     0.081080000000    -0.371384   
O145     O      0.326650000000     0.533870000000     0.479520000000    -0.375034   
O146     O      0.220790000000     0.575460000000     0.508290000000    -0.371596   
O147     O      0.296430000000     0.592310000000     0.042190000000    -0.366347   
O148     O      0.250150000000     0.004880000000     0.455320000000    -0.364607   
O149     O      0.225060000000     0.041310000000     0.471130000000    -0.379547   
O150     O      0.327840000000     0.570590000000     0.014780000000    -0.37468    
O151     O      0.297120000000     0.003970000000     0.457780000000    -0.363514   
O152     O      0.248270000000     0.594250000000     0.041570000000    -0.361376   
O153     O      0.271150000000     0.023060000000     0.026060000000    -0.5943     
O154     O      0.061410000000     0.500260000000     0.714310000000    -0.370784   
O155     O      0.534590000000     0.962680000000     0.818870000000    -0.368627   
O156     O      0.088380000000     0.531150000000     0.792000000000    -0.367489   
O157     O      0.489910000000     0.951980000000     0.739080000000    -0.367768   
O158     O      0.069680000000     0.997970000000     0.818970000000    -0.377318   
O159     O      0.022080000000     0.971800000000     0.710720000000    -0.378439   
O160     O      0.502150000000     0.944930000000     0.789830000000    -0.368511   
O161     O      0.086300000000     0.526080000000     0.744520000000    -0.365816   
O162     O      0.483020000000     0.523080000000     0.718850000000    -0.36797    
O163     O      0.521780000000     0.541720000000     0.828030000000    -0.370373   
O164     O      0.052510000000     0.569520000000     0.738730000000    -0.363337   
O165     O      0.464790000000     0.981560000000     0.804050000000    -0.366025   
O166     O      0.495330000000     0.998620000000     0.835370000000    -0.360308   
O167     O      0.027150000000     0.545890000000     0.707140000000    -0.363114   
O168     O      0.457910000000     0.997190000000     0.747920000000    -0.369846   
O169     O      0.038250000000     0.569670000000     0.793790000000    -0.3761     
O170     O      0.015700000000     0.017070000000     0.770350000000    -0.585156   
O171     O      0.045430000000     0.704950000000     0.547820000000    -0.364291   
O172     O      0.491640000000     0.833410000000     0.996980000000    -0.363013   
O173     O      0.039870000000     0.795320000000     0.575230000000    -0.379873   
O174     O      0.461170000000     0.746150000000     0.008700000000    -0.37401    
O175     O      0.513770000000     0.823930000000     0.548090000000    -0.374921   
O176     O      0.488670000000     0.713920000000     0.528460000000    -0.371385   
O177     O      0.464510000000     0.798450000000     0.981160000000    -0.362423   
O178     O      0.062190000000     0.740630000000     0.573170000000    -0.366446   
O179     O      0.017880000000     0.702770000000     0.983860000000    -0.372739   
O180     O      0.061000000000     0.827200000000     0.006070000000    -0.371999   
O181     O      0.090410000000     0.752810000000     0.527600000000    -0.361863   
O182     O      0.506200000000     0.783740000000     0.951200000000    -0.367976   
O183     O      0.533150000000     0.817430000000     0.969860000000    -0.360717   
O184     O      0.068010000000     0.719300000000     0.503580000000    -0.372786   
O185     O      0.492140000000     0.733770000000     0.959560000000    -0.368447   
O186     O      0.088410000000     0.797070000000     0.534250000000    -0.363036   
O187     O      0.517610000000     0.769580000000     0.523590000000    -0.580216   
O188     O      0.331410000000     0.527610000000     0.556870000000    -0.368506   
O189     O      0.208930000000     0.999940000000     0.014710000000    -0.36746    
O190     O      0.238110000000     0.550940000000     0.578080000000    -0.373348   
O191     O      0.301710000000     0.967100000000     0.998040000000    -0.369513   
O192     O      0.205960000000     0.036420000000     0.546540000000    -0.362089   
O193     O      0.333330000000     0.993280000000     0.518610000000    -0.363844   
O194     O      0.242740000000     0.969210000000     0.003330000000    -0.377288   
O195     O      0.299880000000     0.552250000000     0.581580000000    -0.370606   
O196     O      0.327100000000     0.534870000000     0.978940000000    -0.374198   
O197     O      0.221360000000     0.576240000000     0.007640000000    -0.371947   
O198     O      0.296360000000     0.590900000000     0.543430000000    -0.365165   
O199     O      0.250490000000     0.005010000000     0.955490000000    -0.365193   
O200     O      0.225470000000     0.041640000000     0.970950000000    -0.380171   
O201     O      0.327650000000     0.569230000000     0.515850000000    -0.374582   
O202     O      0.297270000000     0.004970000000     0.957500000000    -0.363551   
O203     O      0.248110000000     0.593190000000     0.542060000000    -0.362105   
O204     O      0.270310000000     0.021890000000     0.526230000000    -0.59479    
O205     O      0.561140000000     0.001690000000     0.213290000000    -0.370202   
O206     O      0.035460000000     0.464090000000     0.318940000000    -0.368116   
O207     O      0.588690000000     0.031460000000     0.290990000000    -0.367235   
O208     O      0.990940000000     0.451970000000     0.239060000000    -0.368335   
O209     O      0.569800000000     0.499160000000     0.319820000000    -0.377531   
O210     O      0.522070000000     0.472340000000     0.210810000000    -0.378097   
O211     O      0.003930000000     0.445460000000     0.289490000000    -0.368913   
O212     O      0.586290000000     0.027210000000     0.243540000000    -0.365557   
O213     O      0.982910000000     0.024510000000     0.217990000000    -0.368671   
O214     O      0.021110000000     0.043060000000     0.326540000000    -0.370369   
O215     O      0.552460000000     0.070720000000     0.238340000000    -0.363238   
O216     O      0.965500000000     0.481010000000     0.303670000000    -0.365647   
O217     O      0.995490000000     0.498810000000     0.335110000000    -0.361185   
O218     O      0.527000000000     0.047270000000     0.206680000000    -0.362339   
O219     O      0.958390000000     0.497340000000     0.248090000000    -0.370722   
O220     O      0.539620000000     0.070690000000     0.293770000000    -0.376205   
O221     O      0.516030000000     0.517730000000     0.270510000000    -0.584557   
O222     O      0.545070000000     0.205060000000     0.048790000000    -0.364112   
O223     O      0.992410000000     0.333630000000     0.497840000000    -0.362891   
O224     O      0.539470000000     0.295470000000     0.075100000000    -0.378919   
O225     O      0.962070000000     0.245840000000     0.507050000000    -0.373513   
O226     O      0.009590000000     0.321420000000     0.050160000000    -0.377437   
O227     O      0.987270000000     0.213420000000     0.030370000000    -0.37206    
O228     O      0.965650000000     0.298790000000     0.481130000000    -0.362836   
O229     O      0.562770000000     0.241320000000     0.072670000000    -0.365443   
O230     O      0.518090000000     0.203540000000     0.484100000000    -0.372568   
O231     O      0.565240000000     0.325070000000     0.504840000000    -0.370629   
O232     O      0.588810000000     0.252930000000     0.026060000000    -0.364027   
O233     O      0.007760000000     0.284660000000     0.451140000000    -0.368304   
O234     O      0.034230000000     0.318390000000     0.470400000000    -0.360109   
O235     O      0.565770000000     0.218480000000     0.004000000000    -0.373288   
O236     O      0.993770000000     0.234540000000     0.458700000000    -0.368116   
O237     O      0.586390000000     0.298430000000     0.033230000000    -0.363951   
O238     O      0.015330000000     0.268380000000     0.024040000000    -0.578141   
O239     O      0.831750000000     0.028660000000     0.055280000000    -0.369408   
O240     O      0.706970000000     0.498990000000     0.512640000000    -0.367521   
O241     O      0.738370000000     0.052190000000     0.076840000000    -0.372993   
O242     O      0.799990000000     0.464560000000     0.499360000000    -0.370294   
O243     O      0.706510000000     0.536400000000     0.046600000000    -0.360853   
O244     O      0.833880000000     0.492530000000     0.019230000000    -0.363964   
O245     O      0.740190000000     0.467890000000     0.500560000000    -0.376731   
O246     O      0.800170000000     0.053210000000     0.080030000000    -0.371425   
O247     O      0.826020000000     0.033910000000     0.478390000000    -0.375004   
O248     O      0.720030000000     0.074840000000     0.507440000000    -0.371337   
O249     O      0.796020000000     0.091890000000     0.041080000000    -0.366304   
O250     O      0.750520000000     0.504330000000     0.455750000000    -0.364154   
O251     O      0.725760000000     0.540990000000     0.471520000000    -0.379556   
O252     O      0.827360000000     0.070150000000     0.013610000000    -0.374435   
O253     O      0.797550000000     0.502520000000     0.458750000000    -0.363186   
O254     O      0.747870000000     0.093780000000     0.040420000000    -0.361305   
O255     O      0.770900000000     0.521730000000     0.026860000000    -0.594271   
O256     O      0.561240000000     0.000840000000     0.714030000000    -0.370253   
O257     O      0.035220000000     0.462920000000     0.819190000000    -0.368694   
O258     O      0.588560000000     0.030590000000     0.791540000000    -0.367174   
O259     O      0.990530000000     0.451280000000     0.739230000000    -0.368008   
O260     O      0.569850000000     0.497900000000     0.820000000000    -0.378146   
O261     O      0.522460000000     0.471180000000     0.711730000000    -0.378705   
O262     O      0.003430000000     0.444510000000     0.789870000000    -0.368998   
O263     O      0.586190000000     0.026710000000     0.744140000000    -0.365283   
O264     O      0.982870000000     0.023520000000     0.718150000000    -0.368288   
O265     O      0.020950000000     0.041840000000     0.827220000000    -0.370181   
O266     O      0.552070000000     0.069980000000     0.739030000000    -0.363569   
O267     O      0.965280000000     0.480170000000     0.804080000000    -0.365712   
O268     O      0.995360000000     0.497830000000     0.835510000000    -0.360992   
O269     O      0.526770000000     0.046400000000     0.707360000000    -0.362566   
O270     O      0.958220000000     0.496370000000     0.748220000000    -0.370608   
O271     O      0.539490000000     0.069660000000     0.794750000000    -0.376188   
O272     O      0.515910000000     0.516720000000     0.771080000000    -0.58516    
O273     O      0.545090000000     0.205140000000     0.548480000000    -0.36446    
O274     O      0.989570000000     0.332650000000     0.997240000000    -0.363784   
O275     O      0.540110000000     0.295840000000     0.575330000000    -0.379867   
O276     O      0.960780000000     0.245480000000     0.008530000000    -0.374128   
O277     O      0.012050000000     0.322520000000     0.549320000000    -0.37625    
O278     O      0.988370000000     0.213520000000     0.528760000000    -0.37158    
O279     O      0.963680000000     0.297260000000     0.980360000000    -0.362075   
O280     O      0.562220000000     0.240880000000     0.573500000000    -0.36664    
O281     O      0.516210000000     0.202260000000     0.985340000000    -0.37275    
O282     O      0.561310000000     0.326730000000     0.005520000000    -0.3713     
O283     O      0.590000000000     0.252640000000     0.527550000000    -0.362103   
O284     O      0.006420000000     0.283490000000     0.951490000000    -0.368452   
O285     O      0.031800000000     0.317910000000     0.970980000000    -0.360008   
O286     O      0.567160000000     0.219110000000     0.503980000000    -0.373488   
O287     O      0.992100000000     0.233180000000     0.959410000000    -0.368866   
O288     O      0.588460000000     0.296860000000     0.534200000000    -0.362877   
O289     O      0.016940000000     0.269020000000     0.523720000000    -0.578633   
O290     O      0.830900000000     0.027030000000     0.555760000000    -0.368474   
O291     O      0.708310000000     0.499400000000     0.014280000000    -0.367824   
O292     O      0.737740000000     0.051060000000     0.577050000000    -0.373401   
O293     O      0.800950000000     0.465430000000     0.999380000000    -0.369835   
O294     O      0.705930000000     0.535350000000     0.546880000000    -0.362339   
O295     O      0.832730000000     0.491190000000     0.520080000000    -0.364493   
O296     O      0.741890000000     0.468280000000     0.003320000000    -0.377361   
O297     O      0.799430000000     0.051740000000     0.580460000000    -0.370551   
O298     O      0.826250000000     0.034610000000     0.977770000000    -0.374517   
O299     O      0.720660000000     0.075510000000     0.006860000000    -0.371795   
O300     O      0.795970000000     0.090520000000     0.542280000000    -0.365195   
O301     O      0.750830000000     0.504150000000     0.956040000000    -0.364703   
O302     O      0.726230000000     0.541130000000     0.971330000000    -0.38025    
O303     O      0.827290000000     0.068830000000     0.514760000000    -0.374004   
O304     O      0.797630000000     0.503220000000     0.958600000000    -0.363288   
O305     O      0.747710000000     0.092780000000     0.540800000000    -0.36209    
O306     O      0.770120000000     0.520680000000     0.526960000000    -0.594376   
O307     O      0.561190000000     0.501020000000     0.213720000000    -0.370173   
O308     O      0.035120000000     0.964060000000     0.318400000000    -0.368155   
O309     O      0.588800000000     0.531380000000     0.291510000000    -0.367442   
O310     O      0.990570000000     0.952410000000     0.238670000000    -0.368385   
O311     O      0.569850000000     0.998680000000     0.318750000000    -0.376951   
O312     O      0.522140000000     0.972610000000     0.210700000000    -0.378421   
O313     O      0.003130000000     0.945780000000     0.289220000000    -0.368676   
O314     O      0.586460000000     0.526430000000     0.243960000000    -0.366173   
O315     O      0.982950000000     0.524090000000     0.218420000000    -0.36865    
O316     O      0.020900000000     0.543220000000     0.326590000000    -0.37059    
O317     O      0.552820000000     0.570240000000     0.238530000000    -0.363385   
O318     O      0.965150000000     0.981940000000     0.303320000000    -0.365522   
O319     O      0.995430000000     0.999360000000     0.334700000000    -0.360341   
O320     O      0.527090000000     0.546910000000     0.207010000000    -0.362923   
O321     O      0.958160000000     0.997830000000     0.247560000000    -0.370048   
O322     O      0.539610000000     0.570520000000     0.293620000000    -0.375926   
O323     O      0.515890000000     0.018040000000     0.270180000000    -0.584969   
O324     O      0.545070000000     0.705180000000     0.048560000000    -0.364022   
O325     O      0.993290000000     0.833840000000     0.497730000000    -0.36246    
O326     O      0.539730000000     0.795940000000     0.074930000000    -0.379358   
O327     O      0.962430000000     0.745770000000     0.506720000000    -0.373747   
O328     O      0.010220000000     0.821930000000     0.049600000000    -0.376922   
O329     O      0.987750000000     0.713300000000     0.029740000000    -0.372035   
O330     O      0.966020000000     0.799190000000     0.481460000000    -0.36328    
O331     O      0.562370000000     0.741290000000     0.072930000000    -0.365849   
O332     O      0.519200000000     0.704170000000     0.483180000000    -0.37298    
O333     O      0.566550000000     0.824420000000     0.504660000000    -0.37153    
O334     O      0.589320000000     0.752890000000     0.026780000000    -0.363401   
O335     O      0.007730000000     0.784880000000     0.450890000000    -0.368184   
O336     O      0.034810000000     0.818260000000     0.469920000000    -0.360859   
O337     O      0.566510000000     0.718740000000     0.004060000000    -0.373134   
O338     O      0.994170000000     0.734960000000     0.458330000000    -0.367751   
O339     O      0.587070000000     0.798060000000     0.033480000000    -0.363509   
O340     O      0.015720000000     0.768550000000     0.023790000000    -0.578596   
O341     O      0.831910000000     0.528220000000     0.056460000000    -0.369357   
O342     O      0.706840000000     0.998890000000     0.511990000000    -0.36713    
O343     O      0.738480000000     0.551280000000     0.077610000000    -0.373003   
O344     O      0.800090000000     0.965160000000     0.498270000000    -0.370261   
O345     O      0.706320000000     0.036820000000     0.046140000000    -0.361252   
O346     O      0.833890000000     0.993310000000     0.018040000000    -0.363421   
O347     O      0.740170000000     0.968090000000     0.499400000000    -0.376406   
O348     O      0.800260000000     0.552850000000     0.081050000000    -0.371476   
O349     O      0.826680000000     0.532860000000     0.479650000000    -0.374814   
O350     O      0.720620000000     0.574830000000     0.508180000000    -0.37164    
O351     O      0.796330000000     0.591340000000     0.042120000000    -0.366372   
O352     O      0.750130000000     0.004590000000     0.454920000000    -0.364161   
O353     O      0.724860000000     0.040830000000     0.470890000000    -0.378947   
O354     O      0.827710000000     0.569490000000     0.014770000000    -0.374635   
O355     O      0.797100000000     0.003270000000     0.457650000000    -0.363561   
O356     O      0.748160000000     0.593410000000     0.041510000000    -0.361322   
O357     O      0.770750000000     0.022110000000     0.026050000000    -0.594409   
O358     O      0.561310000000     0.500130000000     0.714510000000    -0.370318   
O359     O      0.034820000000     0.962940000000     0.818660000000    -0.368397   
O360     O      0.588620000000     0.530560000000     0.792050000000    -0.367415   
O361     O      0.990150000000     0.951790000000     0.738760000000    -0.367892   
O362     O      0.569870000000     0.997430000000     0.818950000000    -0.377457   
O363     O      0.522480000000     0.971590000000     0.711510000000    -0.378821   
O364     O      0.002630000000     0.944870000000     0.789560000000    -0.368658   
O365     O      0.586330000000     0.525990000000     0.744580000000    -0.365611   
O366     O      0.982930000000     0.523030000000     0.718590000000    -0.368471   
O367     O      0.020760000000     0.541940000000     0.827290000000    -0.370362   
O368     O      0.552290000000     0.569480000000     0.739210000000    -0.363473   
O369     O      0.964900000000     0.981100000000     0.803680000000    -0.365671   
O370     O      0.995240000000     0.998390000000     0.835080000000    -0.359844   
O371     O      0.526790000000     0.545910000000     0.707680000000    -0.362877   
O372     O      0.957970000000     0.996870000000     0.747640000000    -0.369637   
O373     O      0.539410000000     0.569470000000     0.794630000000    -0.376056   
O374     O      0.515790000000     0.017080000000     0.770730000000    -0.585484   
O375     O      0.544970000000     0.705120000000     0.548200000000    -0.364261   
O376     O      0.990340000000     0.832890000000     0.997060000000    -0.363493   
O377     O      0.540160000000     0.796190000000     0.575240000000    -0.380094   
O378     O      0.961120000000     0.745470000000     0.008230000000    -0.374246   
O379     O      0.012780000000     0.823030000000     0.548750000000    -0.375741   
O380     O      0.988880000000     0.713320000000     0.528060000000    -0.371428   
O381     O      0.964010000000     0.797640000000     0.980570000000    -0.362307   
O382     O      0.561590000000     0.740680000000     0.573800000000    -0.36716    
O383     O      0.517270000000     0.702880000000     0.984520000000    -0.373006   
O384     O      0.562660000000     0.826140000000     0.004980000000    -0.371857   
O385     O      0.590380000000     0.752490000000     0.528460000000    -0.36152    
O386     O      0.006380000000     0.783710000000     0.951210000000    -0.368249   
O387     O      0.032280000000     0.817860000000     0.970480000000    -0.36042    
O388     O      0.567880000000     0.719340000000     0.504060000000    -0.3733     
O389     O      0.992490000000     0.733580000000     0.959050000000    -0.368488   
O390     O      0.588930000000     0.796470000000     0.534890000000    -0.362718   
O391     O      0.017360000000     0.769150000000     0.523480000000    -0.579415   
O392     O      0.831090000000     0.526610000000     0.556960000000    -0.368532   
O393     O      0.708180000000     0.999330000000     0.013800000000    -0.367503   
O394     O      0.737890000000     0.550240000000     0.577880000000    -0.373446   
O395     O      0.801030000000     0.965970000000     0.998420000000    -0.370007   
O396     O      0.705710000000     0.035690000000     0.546340000000    -0.362462   
O397     O      0.832740000000     0.992010000000     0.518870000000    -0.363786   
O398     O      0.741910000000     0.968430000000     0.002660000000    -0.377296   
O399     O      0.799590000000     0.551440000000     0.581510000000    -0.370621   
O400     O      0.826960000000     0.533710000000     0.979020000000    -0.374371   
O401     O      0.721200000000     0.575480000000     0.007560000000    -0.371722   
O402     O      0.796330000000     0.589990000000     0.543280000000    -0.365189   
O403     O      0.750380000000     0.004240000000     0.955370000000    -0.364992   
O404     O      0.725350000000     0.040890000000     0.970780000000    -0.379626   
O405     O      0.827660000000     0.568130000000     0.515890000000    -0.374291   
O406     O      0.797100000000     0.003780000000     0.957620000000    -0.363549   
O407     O      0.748040000000     0.592460000000     0.541900000000    -0.362202   
O408     O      0.769960000000     0.021060000000     0.526050000000    -0.594662   


