data_structure

_audit_creation_method RASPA-1.0
_audit_creation_date 2023-5-9
_audit_author_name 'Poobodin Mano'

_cell_length_a    47.2699
_cell_length_b    46.5752
_cell_length_c    47.1794
_cell_angle_alpha 90
_cell_angle_beta  90
_cell_angle_gamma 90
_cell_volume      103870

_symmetry_cell_setting          triclinic
_symmetry_space_group_name_Hall 'P 1'
_symmetry_space_group_name_H-M  'P 1'
_symmetry_Int_Tables_number     1

_symmetry_equiv_pos_as_xyz 'x,y,z'

loop_
_atom_site_label
_atom_site_type_symbol
_atom_site_fract_x
_atom_site_fract_y
_atom_site_fract_z
_atom_site_charge
C1       C      0.079560000000     0.029410000000     0.222300000000     0.3952     
C2       C      0.495150000000     0.471590000000     0.327300000000     0.398517   
C3       C      0.064000000000     0.034520000000     0.327900000000     0.401522   
C4       C      0.506270000000     0.455490000000     0.224420000000     0.396159   
C5       C      0.459110000000     0.509910000000     0.212170000000     0.395771   
C6       C      0.014740000000     0.093430000000     0.307340000000     0.390762   
C7       C      0.023050000000     0.079240000000     0.219050000000     0.389164   
C8       C      0.441910000000     0.523850000000     0.307090000000     0.392328   
C9       C      0.448120000000     0.226630000000     0.017730000000     0.389573   
C10      C      0.028970000000     0.327840000000     0.466810000000     0.392196   
C11      C      0.467040000000     0.327580000000     0.026550000000     0.395491   
C12      C      0.015400000000     0.231440000000     0.446920000000     0.390841   
C13      C      0.068200000000     0.210330000000     0.494900000000     0.400947   
C14      C      0.511030000000     0.311690000000     0.086510000000     0.398966   
C15      C      0.502290000000     0.213920000000     0.069600000000     0.393461   
C16      C      0.087840000000     0.309900000000     0.512260000000     0.399076   
C17      C      0.322110000000     0.034640000000     0.066650000000     0.400734   
C18      C      0.229520000000     0.445790000000     0.511400000000     0.398749   
C19      C      0.221830000000     0.025180000000     0.083350000000     0.399472   
C20      C      0.326090000000     0.469030000000     0.493830000000     0.40066    
C21      C      0.303180000000     0.521800000000     0.443520000000     0.392003   
C22      C      0.209950000000     0.069070000000     0.021940000000     0.393207   
C23      C      0.304740000000     0.090420000000     0.015160000000     0.390299   
C24      C      0.208230000000     0.501510000000     0.464380000000     0.394588   
C25      C      0.452530000000     0.378080000000     0.017870000000    -0.0252728  
C26      C      0.340780000000     0.417590000000     0.494250000000    -0.0235968  
C27      C      0.376560000000     0.454830000000     0.498610000000    -0.0234624  
C28      C      0.389310000000     0.426070000000     0.502300000000     0.0153256  
C29      C      0.368860000000     0.404820000000     0.500520000000     0.0148397  
C30      C      0.375470000000     0.375680000000     0.005400000000    -0.0648184  
C31      C      0.416470000000     0.340870000000     0.018270000000    -0.0234319  
C32      C      0.417640000000     0.419580000000     0.507950000000    -0.0663459  
C33      C      0.403810000000     0.369240000000     0.011500000000     0.0140929  
C34      C      0.424360000000     0.390470000000     0.011960000000     0.0152632  
C35      C      0.398090000000     0.216010000000     0.032230000000    -0.0229291  
C36      C      0.335920000000     0.121910000000     0.486730000000    -0.0249662  
C37      C      0.316740000000     0.140790000000     0.030570000000    -0.0230603  
C38      C      0.340410000000     0.159280000000     0.020070000000     0.0102559  
C39      C      0.351170000000     0.148170000000     0.495130000000     0.0158022  
C40      C      0.376030000000     0.158740000000     0.482970000000    -0.0670033  
C41      C      0.417230000000     0.194070000000     0.489770000000    -0.0243806  
C42      C      0.353710000000     0.182530000000     0.033750000000    -0.0627328  
C43      C      0.389200000000     0.181790000000     0.496530000000     0.0156128  
C44      C      0.378350000000     0.193720000000     0.021050000000     0.0101707  
C45      C      0.136490000000     0.320990000000     0.493880000000    -0.023078   
C46      C      0.201870000000     0.411840000000     0.540580000000    -0.0248746  
C47      C      0.217370000000     0.396390000000     0.493970000000    -0.0234285  
C48      C      0.195220000000     0.376610000000     0.505300000000     0.0133451  
C49      C      0.186740000000     0.385590000000     0.531990000000     0.0165507  
C50      C      0.163470000000     0.373510000000     0.545730000000    -0.0671667  
C51      C      0.121960000000     0.338670000000     0.540060000000    -0.0241433  
C52      C      0.180660000000     0.354560000000     0.491010000000    -0.0641948  
C53      C      0.149240000000     0.351470000000     0.531700000000     0.0163541  
C54      C      0.157560000000     0.341940000000     0.505140000000     0.0133696  
C55      C      0.083890000000     0.159270000000     0.994340000000    -0.0223743  
C56      C      0.196590000000     0.120650000000     0.514020000000    -0.0237075  
C57      C      0.161050000000     0.083240000000     0.509180000000    -0.0233034  
C58      C      0.148310000000     0.111830000000     0.504780000000     0.0153016  
C59      C      0.168590000000     0.133230000000     0.506780000000     0.0143212  
C60      C      0.161450000000     0.162050000000     0.003020000000    -0.0674523  
C61      C      0.119490000000     0.196930000000     0.993730000000    -0.021545   
C62      C      0.119720000000     0.118180000000     0.500560000000    -0.0666379  
C63      C      0.132900000000     0.168350000000     0.997630000000     0.015645   
C64      C      0.112560000000     0.146920000000     0.997140000000     0.0174442  
C65      C      0.391670000000     0.509500000000     0.316470000000    -0.0238562  
C66      C      0.332450000000     0.552640000000     0.412370000000    -0.0246614  
C67      C      0.312880000000     0.508690000000     0.392900000000    -0.024049   
C68      C      0.335450000000     0.520320000000     0.374000000000     0.0139194  
C69      C      0.346310000000     0.545520000000     0.385210000000     0.0154913  
C70      C      0.370280000000     0.558750000000     0.373800000000    -0.0664966  
C71      C      0.410230000000     0.553280000000     0.337280000000    -0.0241891  
C72      C      0.348260000000     0.507010000000     0.350490000000    -0.0646755  
C73      C      0.382720000000     0.545770000000     0.350200000000     0.0153837  
C74      C      0.372070000000     0.520620000000     0.338670000000     0.0139083  
C75      C      0.193060000000     0.505960000000     0.413770000000    -0.0238365  
C76      C      0.079160000000     0.524780000000     0.377640000000    -0.0227462  
C77      C      0.114810000000     0.529710000000     0.340810000000    -0.023607   
C78      C      0.128170000000     0.522110000000     0.368210000000     0.0151209  
C79      C      0.107890000000     0.519900000000     0.389320000000     0.0145922  
C80      C      0.115350000000     0.514180000000     0.417460000000    -0.0661053  
C81      C      0.157560000000     0.505230000000     0.451050000000    -0.0233595  
C82      C      0.156970000000     0.517560000000     0.373850000000    -0.0659075  
C83      C      0.144140000000     0.510120000000     0.423170000000     0.0145013  
C84      C      0.164370000000     0.511180000000     0.401930000000     0.014936   
C85      C      0.107560000000     0.003750000000     0.186020000000    -0.0239324  
C86      C      0.207770000000     0.043810000000     0.131670000000    -0.0229748  
C87      C      0.186900000000     0.000070000000     0.113040000000    -0.023215   
C88      C      0.172060000000     0.009120000000     0.138900000000     0.0172761  
C89      C      0.183760000000     0.033990000000     0.149950000000     0.0126106  
C90      C      0.171370000000     0.047760000000     0.173470000000    -0.0638479  
C91      C      0.128280000000     0.045830000000     0.208320000000    -0.0229952  
C92      C      0.147330000000     0.997090000000     0.149770000000    -0.0691011  
C93      C      0.146790000000     0.035160000000     0.184960000000     0.0124063  
C94      C      0.135030000000     0.010760000000     0.172950000000     0.0173778  
C95      C      0.407900000000     0.511420000000     0.197540000000    -0.0231475  
C96      C      0.371590000000     0.028810000000     0.083270000000    -0.0234564  
C97      C      0.333790000000     0.030250000000     0.118190000000    -0.0231734  
C98      C      0.361510000000     0.025110000000     0.132180000000     0.0138394  
C99      C      0.383010000000     0.025160000000     0.112200000000     0.0160827  
C100     C      0.411350000000     0.022330000000     0.119980000000    -0.0671405  
C101     C      0.445040000000     0.515910000000     0.162180000000    -0.0239945  
C102     C      0.367200000000     0.020550000000     0.161100000000    -0.0648398  
C103     C      0.417020000000     0.518170000000     0.148760000000     0.0161501  
C104     C      0.395690000000     0.016940000000     0.168850000000     0.0137225  
C105     C      0.985850000000     0.201510000000     0.415000000000    -0.0242582  
C106     C      0.529680000000     0.144570000000     0.317520000000    -0.0241095  
C107     C      0.985660000000     0.125920000000     0.336770000000    -0.0242372  
C108     C      0.993340000000     0.152990000000     0.350970000000     0.0182772  
C109     C      0.018800000000     0.163460000000     0.340730000000     0.0112787  
C110     C      0.031990000000     0.187260000000     0.353500000000    -0.0630187  
C111     C      0.029210000000     0.222260000000     0.396560000000    -0.0231511  
C112     C      0.980120000000     0.164880000000     0.374720000000    -0.068129   
C113     C      0.018300000000     0.199720000000     0.376980000000     0.0110736  
C114     C      0.993240000000     0.188460000000     0.387410000000     0.018412   
C115     C      0.021750000000     0.341690000000     0.415990000000    -0.0236542  
C116     C      0.502290000000     0.456280000000     0.377250000000    -0.0234831  
C117     C      0.997030000000     0.419370000000     0.341060000000    -0.019655   
C118     C      0.003930000000     0.406170000000     0.368940000000     0.0116665  
C119     C      0.506570000000     0.427360000000     0.389430000000     0.0153167  
C120     C      0.512400000000     0.420450000000     0.417680000000    -0.0666085  
C121     C      0.522630000000     0.378670000000     0.452040000000    -0.0235444  
C122     C      0.009040000000     0.377140000000     0.375200000000    -0.0642287  
C123     C      0.516800000000     0.391440000000     0.423970000000     0.0150753  
C124     C      0.015370000000     0.370310000000     0.403500000000     0.0137307  
C125     C      0.992300000000     0.324410000000     0.135270000000    -0.0194528  
C126     C      0.533340000000     0.424810000000     0.191270000000    -0.0242439  
C127     C      0.989700000000     0.405450000000     0.211330000000    -0.0193291  
C128     C      0.000990000000     0.385690000000     0.189150000000     0.00772179 
C129     C      0.526150000000     0.396970000000     0.178240000000     0.0165101  
C130     C      0.540280000000     0.383730000000     0.155850000000    -0.0673644  
C131     C      0.537000000000     0.344200000000     0.118470000000    -0.0244712  
C132     C      0.987980000000     0.361460000000     0.176870000000    -0.0575598  
C133     C      0.527810000000     0.359260000000     0.144250000000     0.0165802  
C134     C      0.002360000000     0.347960000000     0.154360000000     0.00772761 
C135     C      0.043020000000     0.117990000000     0.189180000000    -0.0244184  
C136     C      0.481660000000     0.187370000000     0.110520000000    -0.0242045  
C137     C      0.031810000000     0.182630000000     0.100700000000    -0.0241374  
C138     C      0.024140000000     0.166170000000     0.126510000000     0.0142307  
C139     C      0.495260000000     0.167150000000     0.130660000000     0.0157046  
C140     C      0.482300000000     0.149660000000     0.151070000000    -0.0664263  
C141     C      0.492260000000     0.111210000000     0.189620000000    -0.0256434  
C142     C      0.042130000000     0.151230000000     0.144990000000    -0.0661577  
C143     C      0.500210000000     0.133190000000     0.168300000000     0.0160833  
C144     C      0.029240000000     0.135360000000     0.166700000000     0.016437   
C145     C      0.079530000000     0.029460000000     0.722300000000     0.395096   
C146     C      0.495150000000     0.471600000000     0.827290000000     0.398719   
C147     C      0.063970000000     0.034590000000     0.827880000000     0.401844   
C148     C      0.506250000000     0.455480000000     0.724460000000     0.396024   
C149     C      0.459100000000     0.509920000000     0.712160000000     0.396039   
C150     C      0.014640000000     0.093450000000     0.807310000000     0.390948   
C151     C      0.022960000000     0.079230000000     0.719020000000     0.389009   
C152     C      0.441880000000     0.523840000000     0.807100000000     0.392463   
C153     C      0.447850000000     0.226900000000     0.517620000000     0.389587   
C154     C      0.029190000000     0.327840000000     0.966720000000     0.392366   
C155     C      0.466930000000     0.327700000000     0.526810000000     0.395771   
C156     C      0.015400000000     0.231430000000     0.946860000000     0.390819   
C157     C      0.068310000000     0.210200000000     0.994210000000     0.400971   
C158     C      0.510960000000     0.311620000000     0.586660000000     0.399373   
C159     C      0.501990000000     0.213890000000     0.569590000000     0.39352    
C160     C      0.088020000000     0.309700000000     0.012290000000     0.396662   
C161     C      0.322120000000     0.034900000000     0.566650000000     0.400811   
C162     C      0.229510000000     0.445650000000     0.011410000000     0.396464   
C163     C      0.221820000000     0.025320000000     0.583350000000     0.399233   
C164     C      0.326030000000     0.468810000000     0.993730000000     0.400751   
C165     C      0.303120000000     0.521660000000     0.943510000000     0.391721   
C166     C      0.210050000000     0.069190000000     0.521710000000     0.393341   
C167     C      0.304470000000     0.090680000000     0.514990000000     0.392326   
C168     C      0.208210000000     0.501460000000     0.964350000000     0.394581   
C169     C      0.452470000000     0.378240000000     0.518280000000    -0.0230217  
C170     C      0.340740000000     0.417360000000     0.994150000000    -0.0194386  
C171     C      0.376510000000     0.454620000000     0.998390000000    -0.0195164  
C172     C      0.389290000000     0.425860000000     0.002060000000     0.0135292  
C173     C      0.368840000000     0.404600000000     0.000350000000     0.012686   
C174     C      0.375450000000     0.375900000000     0.505590000000    -0.0655927  
C175     C      0.416380000000     0.341050000000     0.518550000000    -0.0237506  
C176     C      0.417640000000     0.419390000000     0.007620000000    -0.0661823  
C177     C      0.403770000000     0.369440000000     0.511770000000     0.0147726  
C178     C      0.424330000000     0.390660000000     0.512300000000     0.0149015  
C179     C      0.397840000000     0.216240000000     0.532110000000    -0.0237206  
C180     C      0.336440000000     0.121480000000     0.987050000000    -0.0243017  
C181     C      0.316380000000     0.141040000000     0.530370000000    -0.0240343  
C182     C      0.340210000000     0.159410000000     0.520000000000     0.0132741  
C183     C      0.351390000000     0.148000000000     0.995220000000     0.0184745  
C184     C      0.376260000000     0.158570000000     0.983070000000    -0.0685366  
C185     C      0.417590000000     0.193690000000     0.989970000000    -0.0237959  
C186     C      0.353540000000     0.182620000000     0.533720000000    -0.0644616  
C187     C      0.389390000000     0.181660000000     0.996590000000     0.0183362  
C188     C      0.378170000000     0.193830000000     0.521020000000     0.0131564  
C189     C      0.136720000000     0.320690000000     0.994010000000    -0.0184672  
C190     C      0.201930000000     0.411680000000     0.040630000000    -0.0257989  
C191     C      0.217470000000     0.396200000000     0.994050000000    -0.0188256  
C192     C      0.195380000000     0.376380000000     0.005410000000     0.00695337 
C193     C      0.186870000000     0.385370000000     0.032090000000     0.0191381  
C194     C      0.163630000000     0.373260000000     0.045840000000    -0.0695192  
C195     C      0.122160000000     0.338370000000     0.040180000000    -0.0251966  
C196     C      0.180850000000     0.354300000000     0.991140000000    -0.0567743  
C197     C      0.149430000000     0.351190000000     0.031830000000     0.0189683  
C198     C      0.157770000000     0.341650000000     0.005280000000     0.00694778 
C199     C      0.083820000000     0.159450000000     0.495240000000    -0.0237654  
C200     C      0.196520000000     0.120520000000     0.014310000000    -0.0261094  
C201     C      0.160910000000     0.083060000000     0.009620000000    -0.0255719  
C202     C      0.148220000000     0.111650000000     0.005030000000     0.0155796  
C203     C      0.168520000000     0.133050000000     0.006960000000     0.014614   
C204     C      0.161460000000     0.162260000000     0.503200000000    -0.0653102  
C205     C      0.119420000000     0.197210000000     0.494700000000    -0.0230577  
C206     C      0.119670000000     0.117990000000     0.000520000000    -0.0689171  
C207     C      0.132870000000     0.168580000000     0.498060000000     0.0140767  
C208     C      0.112550000000     0.147120000000     0.497520000000     0.0157492  
C209     C      0.391640000000     0.509480000000     0.816470000000    -0.0238937  
C210     C      0.332390000000     0.552540000000     0.912380000000    -0.024712   
C211     C      0.312830000000     0.508610000000     0.892880000000    -0.0240591  
C212     C      0.335400000000     0.520250000000     0.873990000000     0.0139104  
C213     C      0.346250000000     0.545450000000     0.885230000000     0.0155726  
C214     C      0.370230000000     0.558680000000     0.873840000000    -0.0665196  
C215     C      0.410200000000     0.553240000000     0.837330000000    -0.0242421  
C216     C      0.348220000000     0.506960000000     0.850480000000    -0.0646251  
C217     C      0.382690000000     0.545720000000     0.850230000000     0.0154182  
C218     C      0.372040000000     0.520580000000     0.838680000000     0.0139051  
C219     C      0.193040000000     0.505980000000     0.913740000000    -0.0238885  
C220     C      0.079150000000     0.524890000000     0.877620000000    -0.0226898  
C221     C      0.114790000000     0.529780000000     0.840790000000    -0.0235979  
C222     C      0.128160000000     0.522190000000     0.868190000000     0.015106   
C223     C      0.107870000000     0.519990000000     0.889300000000     0.0146555  
C224     C      0.115330000000     0.514270000000     0.917430000000    -0.0660562  
C225     C      0.157540000000     0.505280000000     0.951020000000    -0.0234119  
C226     C      0.156950000000     0.517610000000     0.873830000000    -0.0658532  
C227     C      0.144120000000     0.510200000000     0.923140000000     0.0146168  
C228     C      0.164350000000     0.511230000000     0.901900000000     0.0149631  
C229     C      0.107560000000     0.003820000000     0.686020000000    -0.0239638  
C230     C      0.207740000000     0.043960000000     0.631660000000    -0.0229688  
C231     C      0.186890000000     0.000200000000     0.613030000000    -0.0232921  
C232     C      0.172050000000     0.009240000000     0.638890000000     0.0173218  
C233     C      0.183730000000     0.034120000000     0.649940000000     0.0125853  
C234     C      0.171330000000     0.047880000000     0.673460000000    -0.063804   
C235     C      0.128240000000     0.045920000000     0.708310000000    -0.0230076  
C236     C      0.147320000000     0.997190000000     0.649760000000    -0.0691196  
C237     C      0.146760000000     0.035260000000     0.684950000000     0.012388   
C238     C      0.135010000000     0.010850000000     0.672940000000     0.017407   
C239     C      0.407890000000     0.511480000000     0.697520000000    -0.0232606  
C240     C      0.371610000000     0.029090000000     0.583270000000    -0.0235497  
C241     C      0.333800000000     0.030480000000     0.618190000000    -0.0232746  
C242     C      0.361520000000     0.025320000000     0.632180000000     0.0138633  
C243     C      0.383020000000     0.025390000000     0.612200000000     0.0161617  
C244     C      0.411360000000     0.022510000000     0.619970000000    -0.0671833  
C245     C      0.445040000000     0.515980000000     0.662160000000    -0.0240764  
C246     C      0.367200000000     0.020700000000     0.661090000000    -0.0648926  
C247     C      0.417020000000     0.518290000000     0.648750000000     0.0162056  
C248     C      0.395690000000     0.017050000000     0.668830000000     0.0137238  
C249     C      0.985790000000     0.201480000000     0.915020000000    -0.024356   
C250     C      0.529510000000     0.144630000000     0.817430000000    -0.0242094  
C251     C      0.985550000000     0.125900000000     0.836770000000    -0.0243028  
C252     C      0.993210000000     0.152990000000     0.850950000000     0.0183214  
C253     C      0.018630000000     0.163510000000     0.840650000000     0.0112417  
C254     C      0.031800000000     0.187340000000     0.853390000000    -0.0630025  
C255     C      0.029050000000     0.222340000000     0.896450000000    -0.0231846  
C256     C      0.980030000000     0.164850000000     0.874740000000    -0.0681546  
C257     C      0.018140000000     0.199770000000     0.876900000000     0.0110924  
C258     C      0.993130000000     0.188450000000     0.887400000000     0.018509   
C259     C      0.021940000000     0.341700000000     0.915900000000    -0.0237364  
C260     C      0.502360000000     0.456290000000     0.877220000000    -0.0234348  
C261     C      0.997040000000     0.419380000000     0.841040000000    -0.0196741  
C262     C      0.004010000000     0.406180000000     0.868900000000     0.0116406  
C263     C      0.506680000000     0.427370000000     0.889390000000     0.0153708  
C264     C      0.512590000000     0.420460000000     0.917630000000    -0.0665824  
C265     C      0.522920000000     0.378680000000     0.951960000000    -0.0236071  
C266     C      0.009140000000     0.377150000000     0.875150000000    -0.0641711  
C267     C      0.517020000000     0.391450000000     0.923900000000     0.0152363  
C268     C      0.015550000000     0.370320000000     0.903430000000     0.0137805  
C269     C      0.992260000000     0.324330000000     0.635430000000    -0.0195581  
C270     C      0.533330000000     0.424740000000     0.691370000000    -0.024063   
C271     C      0.989680000000     0.405430000000     0.711400000000    -0.0192688  
C272     C      0.000970000000     0.385640000000     0.689260000000     0.00771951 
C273     C      0.526150000000     0.396880000000     0.678370000000     0.0164418  
C274     C      0.540290000000     0.383620000000     0.656000000000    -0.0673622  
C275     C      0.536990000000     0.344050000000     0.618640000000    -0.0244061  
C276     C      0.987950000000     0.361410000000     0.677000000000    -0.0575849  
C277     C      0.527810000000     0.359140000000     0.644410000000     0.0165389  
C278     C      0.002330000000     0.347870000000     0.654510000000     0.00773194 
C279     C      0.042870000000     0.117980000000     0.689130000000    -0.0231843  
C280     C      0.481400000000     0.187310000000     0.610510000000    -0.0242764  
C281     C      0.031530000000     0.182580000000     0.600630000000    -0.0235331  
C282     C      0.023900000000     0.166120000000     0.626460000000     0.0127461  
C283     C      0.495030000000     0.167090000000     0.630630000000     0.015756   
C284     C      0.482090000000     0.149600000000     0.651060000000    -0.0664514  
C285     C      0.492120000000     0.111160000000     0.689610000000    -0.0256241  
C286     C      0.041910000000     0.151200000000     0.644920000000    -0.0641937  
C287     C      0.500030000000     0.133140000000     0.668280000000     0.0160763  
C288     C      0.029060000000     0.135330000000     0.666660000000     0.0126316  
C289     C      0.079550000000     0.529400000000     0.222320000000     0.395184   
C290     C      0.495060000000     0.971560000000     0.327260000000     0.398601   
C291     C      0.063980000000     0.534950000000     0.327990000000     0.401366   
C292     C      0.506240000000     0.955530000000     0.224330000000     0.395804   
C293     C      0.459100000000     0.010030000000     0.212150000000     0.396018   
C294     C      0.014670000000     0.593480000000     0.307280000000     0.390858   
C295     C      0.023030000000     0.579200000000     0.218980000000     0.389158   
C296     C      0.441890000000     0.023870000000     0.307030000000     0.392549   
C297     C      0.448120000000     0.726610000000     0.017690000000     0.389514   
C298     C      0.028960000000     0.827820000000     0.466750000000     0.392269   
C299     C      0.467050000000     0.827570000000     0.026500000000     0.39551    
C300     C      0.015380000000     0.731450000000     0.446860000000     0.391071   
C301     C      0.068210000000     0.710320000000     0.494840000000     0.400871   
C302     C      0.511040000000     0.811690000000     0.086450000000     0.39914    
C303     C      0.502290000000     0.713900000000     0.069540000000     0.393517   
C304     C      0.087840000000     0.809890000000     0.512200000000     0.399063   
C305     C      0.322110000000     0.534580000000     0.066660000000     0.401028   
C306     C      0.229520000000     0.945810000000     0.511360000000     0.398639   
C307     C      0.221820000000     0.525170000000     0.083370000000     0.399248   
C308     C      0.326100000000     0.969040000000     0.493830000000     0.400419   
C309     C      0.303210000000     0.021810000000     0.443510000000     0.392086   
C310     C      0.209950000000     0.569050000000     0.021950000000     0.393142   
C311     C      0.304740000000     0.590400000000     0.015170000000     0.390191   
C312     C      0.208260000000     0.001550000000     0.464350000000     0.395542   
C313     C      0.452530000000     0.878080000000     0.017860000000    -0.0252604  
C314     C      0.340790000000     0.917610000000     0.494260000000    -0.0234586  
C315     C      0.376570000000     0.954840000000     0.498620000000    -0.0234486  
C316     C      0.389320000000     0.926080000000     0.502310000000     0.015273   
C317     C      0.368870000000     0.904830000000     0.500530000000     0.0147749  
C318     C      0.375480000000     0.875690000000     0.005390000000    -0.0648082  
C319     C      0.416470000000     0.840860000000     0.018250000000    -0.0235809  
C320     C      0.417650000000     0.919580000000     0.507960000000    -0.0663261  
C321     C      0.403820000000     0.869250000000     0.011490000000     0.0141404  
C322     C      0.424370000000     0.890480000000     0.011960000000     0.0152114  
C323     C      0.398100000000     0.715990000000     0.032200000000    -0.0228987  
C324     C      0.335920000000     0.621890000000     0.486740000000    -0.0248558  
C325     C      0.316750000000     0.640770000000     0.030580000000    -0.0230871  
C326     C      0.340420000000     0.659250000000     0.020080000000     0.0102823  
C327     C      0.351170000000     0.648150000000     0.495130000000     0.0157354  
C328     C      0.376030000000     0.658710000000     0.482960000000    -0.0669449  
C329     C      0.417230000000     0.694040000000     0.489740000000    -0.0243985  
C330     C      0.353730000000     0.682510000000     0.033750000000    -0.0627841  
C331     C      0.389200000000     0.681760000000     0.496520000000     0.0155873  
C332     C      0.378360000000     0.693700000000     0.021040000000     0.0102188  
C333     C      0.136500000000     0.820990000000     0.493820000000    -0.0231201  
C334     C      0.201850000000     0.911860000000     0.540520000000    -0.0248259  
C335     C      0.217360000000     0.896410000000     0.493910000000    -0.0234811  
C336     C      0.195210000000     0.876630000000     0.505240000000     0.0133427  
C337     C      0.186720000000     0.885610000000     0.531930000000     0.0165101  
C338     C      0.163460000000     0.873520000000     0.545670000000    -0.0671451  
C339     C      0.121960000000     0.838670000000     0.540000000000    -0.0241513  
C340     C      0.180650000000     0.854580000000     0.490950000000    -0.0641617  
C341     C      0.149230000000     0.851480000000     0.531630000000     0.0163344  
C342     C      0.157560000000     0.841950000000     0.505080000000     0.0133766  
C343     C      0.083900000000     0.659260000000     0.994290000000    -0.0222826  
C344     C      0.196590000000     0.620640000000     0.514020000000    -0.0237036  
C345     C      0.161060000000     0.583230000000     0.509160000000    -0.0231657  
C346     C      0.148310000000     0.611820000000     0.504760000000     0.015244   
C347     C      0.168590000000     0.633220000000     0.506770000000     0.0143441  
C348     C      0.161450000000     0.662040000000     0.003010000000    -0.0675277  
C349     C      0.119500000000     0.696920000000     0.993690000000    -0.0216472  
C350     C      0.119720000000     0.618160000000     0.500520000000    -0.066636   
C351     C      0.132900000000     0.668340000000     0.997610000000     0.0157294  
C352     C      0.112570000000     0.646900000000     0.997100000000     0.0173841  
C353     C      0.391650000000     0.009540000000     0.316410000000    -0.0229488  
C354     C      0.332480000000     0.052640000000     0.412350000000    -0.0245545  
C355     C      0.312900000000     0.008710000000     0.392890000000    -0.0231199  
C356     C      0.335470000000     0.020340000000     0.373970000000     0.0134286  
C357     C      0.346320000000     0.045540000000     0.385190000000     0.0156886  
C358     C      0.370290000000     0.058770000000     0.373760000000    -0.0666471  
C359     C      0.410220000000     0.053310000000     0.337220000000    -0.0242846  
C360     C      0.348250000000     0.007040000000     0.350450000000    -0.0635361  
C361     C      0.382720000000     0.045800000000     0.350150000000     0.0156687  
C362     C      0.372060000000     0.020650000000     0.338620000000     0.0133846  
C363     C      0.193100000000     0.005930000000     0.413730000000    -0.0229909  
C364     C      0.079140000000     0.024220000000     0.377510000000    -0.0226221  
C365     C      0.114820000000     0.029050000000     0.340610000000    -0.0235421  
C366     C      0.128180000000     0.021720000000     0.368090000000     0.0149764  
C367     C      0.107900000000     0.019560000000     0.389200000000     0.0144713  
C368     C      0.115370000000     0.014010000000     0.417370000000    -0.0659805  
C369     C      0.157590000000     0.005280000000     0.451000000000    -0.0225938  
C370     C      0.156980000000     0.017270000000     0.373760000000    -0.0657235  
C371     C      0.144180000000     0.010070000000     0.423110000000     0.0144275  
C372     C      0.164410000000     0.011070000000     0.401860000000     0.0147987  
C373     C      0.107570000000     0.503720000000     0.186060000000    -0.0242776  
C374     C      0.207760000000     0.543810000000     0.131690000000    -0.023129   
C375     C      0.186900000000     0.500060000000     0.113070000000    -0.0242437  
C376     C      0.172060000000     0.509100000000     0.138930000000     0.0165327  
C377     C      0.183750000000     0.533980000000     0.149980000000     0.0129089  
C378     C      0.171360000000     0.547760000000     0.173490000000    -0.0641718  
C379     C      0.128270000000     0.545810000000     0.208340000000    -0.0230513  
C380     C      0.147330000000     0.497060000000     0.149800000000    -0.0677086  
C381     C      0.146790000000     0.535140000000     0.184980000000     0.0127018  
C382     C      0.135030000000     0.510740000000     0.172980000000     0.016499   
C383     C      0.407870000000     0.011660000000     0.197570000000    -0.0231317  
C384     C      0.371570000000     0.528610000000     0.083270000000    -0.0234578  
C385     C      0.333790000000     0.530160000000     0.118210000000    -0.0232337  
C386     C      0.361500000000     0.524890000000     0.132190000000     0.0138253  
C387     C      0.382990000000     0.524870000000     0.112190000000     0.016055   
C388     C      0.411320000000     0.521960000000     0.119960000000    -0.0672423  
C389     C      0.445040000000     0.016250000000     0.162190000000    -0.0233174  
C390     C      0.367180000000     0.520320000000     0.161100000000    -0.0648799  
C391     C      0.417040000000     0.018590000000     0.148790000000     0.0159965  
C392     C      0.395650000000     0.516540000000     0.168830000000     0.0135327  
C393     C      0.985800000000     0.701540000000     0.414940000000    -0.0242522  
C394     C      0.529570000000     0.644640000000     0.317410000000    -0.0242379  
C395     C      0.985570000000     0.625970000000     0.336690000000    -0.0242752  
C396     C      0.993250000000     0.653050000000     0.350890000000     0.0183077  
C397     C      0.018700000000     0.663530000000     0.340630000000     0.0112529  
C398     C      0.031900000000     0.687320000000     0.353410000000    -0.0630329  
C399     C      0.029150000000     0.722300000000     0.396480000000    -0.0232291  
C400     C      0.980050000000     0.664930000000     0.374650000000    -0.0681489  
C401     C      0.018230000000     0.699770000000     0.376900000000     0.0111111  
C402     C      0.993170000000     0.688500000000     0.387340000000     0.0184193  
C403     C      0.021740000000     0.841670000000     0.415920000000    -0.0236712  
C404     C      0.502150000000     0.956240000000     0.377200000000    -0.0233639  
C405     C      0.996950000000     0.919340000000     0.341010000000    -0.0197024  
C406     C      0.003850000000     0.906140000000     0.368880000000     0.0116528  
C407     C      0.506450000000     0.927320000000     0.389390000000     0.0152098  
C408     C      0.512290000000     0.920410000000     0.417630000000    -0.0665658  
C409     C      0.522580000000     0.878640000000     0.451980000000    -0.023503   
C410     C      0.009000000000     0.877110000000     0.375140000000    -0.06425    
C411     C      0.516730000000     0.891410000000     0.423910000000     0.0150134  
C412     C      0.015330000000     0.870280000000     0.403440000000     0.0137431  
C413     C      0.992300000000     0.824420000000     0.135200000000    -0.0194266  
C414     C      0.533290000000     0.924860000000     0.191170000000    -0.0240727  
C415     C      0.989670000000     0.905490000000     0.211230000000    -0.0192186  
C416     C      0.000960000000     0.885720000000     0.189060000000     0.00766263 
C417     C      0.526120000000     0.897010000000     0.178140000000     0.016436   
C418     C      0.540250000000     0.883780000000     0.155760000000    -0.0673769  
C419     C      0.536990000000     0.844220000000     0.118390000000    -0.0244627  
C420     C      0.987960000000     0.861480000000     0.176790000000    -0.0575489  
C421     C      0.527790000000     0.859300000000     0.144160000000     0.0165523  
C422     C      0.002340000000     0.847980000000     0.154280000000     0.00770382 
C423     C      0.043010000000     0.617930000000     0.189090000000    -0.0245217  
C424     C      0.481660000000     0.687330000000     0.110430000000    -0.0241641  
C425     C      0.031810000000     0.682610000000     0.100630000000    -0.0241836  
C426     C      0.024130000000     0.666130000000     0.126430000000     0.014224   
C427     C      0.495250000000     0.667090000000     0.130560000000     0.0156694  
C428     C      0.482290000000     0.649590000000     0.150960000000    -0.0663955  
C429     C      0.492250000000     0.611120000000     0.189490000000    -0.0255803  
C430     C      0.042120000000     0.651180000000     0.144910000000    -0.0661844  
C431     C      0.500200000000     0.633110000000     0.168190000000     0.0160412  
C432     C      0.029230000000     0.635300000000     0.166610000000     0.0164749  
C433     C      0.079530000000     0.529440000000     0.722320000000     0.395186   
C434     C      0.495060000000     0.971570000000     0.827250000000     0.398618   
C435     C      0.063950000000     0.535020000000     0.827970000000     0.401503   
C436     C      0.506220000000     0.955510000000     0.724370000000     0.395797   
C437     C      0.459090000000     0.010040000000     0.712140000000     0.396017   
C438     C      0.014570000000     0.593510000000     0.807250000000     0.39094    
C439     C      0.022940000000     0.579190000000     0.718950000000     0.388963   
C440     C      0.441860000000     0.023860000000     0.807040000000     0.392624   
C441     C      0.447850000000     0.726880000000     0.517570000000     0.389491   
C442     C      0.029190000000     0.827820000000     0.966660000000     0.392327   
C443     C      0.466940000000     0.827690000000     0.526770000000     0.395848   
C444     C      0.015380000000     0.731440000000     0.946810000000     0.390896   
C445     C      0.068320000000     0.710190000000     0.994160000000     0.40071    
C446     C      0.510970000000     0.811620000000     0.586600000000     0.399091   
C447     C      0.502000000000     0.713870000000     0.569530000000     0.393489   
C448     C      0.088020000000     0.809700000000     0.012230000000     0.396763   
C449     C      0.322120000000     0.534840000000     0.566670000000     0.401106   
C450     C      0.229510000000     0.945670000000     0.011370000000     0.39643    
C451     C      0.221820000000     0.525310000000     0.583370000000     0.399403   
C452     C      0.326040000000     0.968820000000     0.993730000000     0.400904   
C453     C      0.303150000000     0.021680000000     0.943490000000     0.391839   
C454     C      0.210040000000     0.569180000000     0.521720000000     0.393526   
C455     C      0.304470000000     0.590660000000     0.515000000000     0.392459   
C456     C      0.208240000000     0.001500000000     0.964320000000     0.395705   
C457     C      0.452480000000     0.878240000000     0.518260000000    -0.0231217  
C458     C      0.340750000000     0.917380000000     0.994150000000    -0.0193821  
C459     C      0.376530000000     0.954620000000     0.998410000000    -0.0196123  
C460     C      0.389290000000     0.925870000000     0.002070000000     0.0135284  
C461     C      0.368850000000     0.904600000000     0.000360000000     0.012644   
C462     C      0.375460000000     0.875900000000     0.505580000000    -0.0656098  
C463     C      0.416390000000     0.841050000000     0.518520000000    -0.0236717  
C464     C      0.417640000000     0.919390000000     0.007630000000    -0.0661611  
C465     C      0.403780000000     0.869450000000     0.511760000000     0.0147415  
C466     C      0.424330000000     0.890660000000     0.512300000000     0.0149088  
C467     C      0.397850000000     0.716220000000     0.532080000000    -0.0238027  
C468     C      0.336430000000     0.621450000000     0.987050000000    -0.0243181  
C469     C      0.316390000000     0.641020000000     0.530380000000    -0.0241123  
C470     C      0.340220000000     0.659390000000     0.520000000000     0.0133217  
C471     C      0.351390000000     0.647970000000     0.995220000000     0.0184674  
C472     C      0.376250000000     0.658540000000     0.983060000000    -0.068477   
C473     C      0.417590000000     0.693660000000     0.989950000000    -0.0236666  
C474     C      0.353560000000     0.682600000000     0.533720000000    -0.0645259  
C475     C      0.389400000000     0.681630000000     0.996570000000     0.0182504  
C476     C      0.378180000000     0.693810000000     0.521000000000     0.0132105  
C477     C      0.136720000000     0.820700000000     0.993940000000    -0.0184998  
C478     C      0.201910000000     0.911700000000     0.040580000000    -0.025818   
C479     C      0.217460000000     0.896220000000     0.994000000000    -0.0188769  
C480     C      0.195370000000     0.876400000000     0.005350000000     0.00697294 
C481     C      0.186860000000     0.885390000000     0.032030000000     0.0190938  
C482     C      0.163610000000     0.873270000000     0.045780000000    -0.0695405  
C483     C      0.122160000000     0.838370000000     0.040120000000    -0.0252728  
C484     C      0.180850000000     0.854320000000     0.991080000000    -0.0567987  
C485     C      0.149430000000     0.851190000000     0.031760000000     0.0189955  
C486     C      0.157770000000     0.841660000000     0.005210000000     0.00693551 
C487     C      0.083830000000     0.659440000000     0.495190000000    -0.0237371  
C488     C      0.196520000000     0.620510000000     0.014310000000    -0.0261717  
C489     C      0.160910000000     0.583050000000     0.009600000000    -0.0256248  
C490     C      0.148230000000     0.611640000000     0.005010000000     0.0155784  
C491     C      0.168520000000     0.633030000000     0.006940000000     0.0146467  
C492     C      0.161470000000     0.662250000000     0.503180000000    -0.0653254  
C493     C      0.119430000000     0.697200000000     0.494670000000    -0.0230824  
C494     C      0.119680000000     0.617980000000     0.000490000000    -0.0688951  
C495     C      0.132880000000     0.668560000000     0.498030000000     0.0141034  
C496     C      0.112550000000     0.647110000000     0.497480000000     0.0157126  
C497     C      0.391620000000     0.009520000000     0.816410000000    -0.0229628  
C498     C      0.332420000000     0.052550000000     0.912370000000    -0.0248084  
C499     C      0.312850000000     0.008630000000     0.892860000000    -0.0230978  
C500     C      0.335410000000     0.020270000000     0.873960000000     0.0133878  
C501     C      0.346270000000     0.045460000000     0.885200000000     0.0158569  
C502     C      0.370240000000     0.058700000000     0.873800000000    -0.0666978  
C503     C      0.410180000000     0.053270000000     0.837270000000    -0.024318   
C504     C      0.348210000000     0.006990000000     0.850440000000    -0.0634752  
C505     C      0.382680000000     0.045750000000     0.850180000000     0.0157239  
C506     C      0.372030000000     0.020620000000     0.838630000000     0.0133563  
C507     C      0.193070000000     0.005940000000     0.913700000000    -0.0229474  
C508     C      0.079120000000     0.024320000000     0.877490000000    -0.0226652  
C509     C      0.114800000000     0.029120000000     0.840590000000    -0.0235255  
C510     C      0.128160000000     0.021800000000     0.868060000000     0.0149779  
C511     C      0.107880000000     0.019660000000     0.889180000000     0.0145342  
C512     C      0.115360000000     0.014100000000     0.917350000000    -0.0659239  
C513     C      0.157580000000     0.005340000000     0.950970000000    -0.0225505  
C514     C      0.156960000000     0.017330000000     0.873730000000    -0.0656876  
C515     C      0.144160000000     0.010140000000     0.923080000000     0.0145408  
C516     C      0.164390000000     0.011120000000     0.901830000000     0.0147867  
C517     C      0.107570000000     0.503790000000     0.686060000000    -0.0242856  
C518     C      0.207730000000     0.543950000000     0.631690000000    -0.0231478  
C519     C      0.186890000000     0.500190000000     0.613060000000    -0.0242958  
C520     C      0.172050000000     0.509220000000     0.638920000000     0.016559   
C521     C      0.183730000000     0.534120000000     0.649970000000     0.0129039  
C522     C      0.171320000000     0.547880000000     0.673480000000    -0.0641348  
C523     C      0.128230000000     0.545900000000     0.708330000000    -0.0229048  
C524     C      0.147330000000     0.497170000000     0.649800000000    -0.0676527  
C525     C      0.146760000000     0.535240000000     0.684980000000     0.0126407  
C526     C      0.135020000000     0.510830000000     0.672980000000     0.0165246  
C527     C      0.407870000000     0.011720000000     0.697550000000    -0.0231439  
C528     C      0.371590000000     0.528890000000     0.583270000000    -0.0235393  
C529     C      0.333800000000     0.530390000000     0.618210000000    -0.0232917  
C530     C      0.361510000000     0.525100000000     0.632180000000     0.0137882  
C531     C      0.383000000000     0.525100000000     0.612190000000     0.0161572  
C532     C      0.411330000000     0.522140000000     0.619950000000    -0.0673144  
C533     C      0.445040000000     0.016310000000     0.662180000000    -0.0232248  
C534     C      0.367190000000     0.520470000000     0.661090000000    -0.0648642  
C535     C      0.417050000000     0.018710000000     0.648770000000     0.0159813  
C536     C      0.395660000000     0.516660000000     0.668810000000     0.0135435  
C537     C      0.985750000000     0.701510000000     0.914960000000    -0.024291   
C538     C      0.529400000000     0.644700000000     0.817330000000    -0.0242565  
C539     C      0.985460000000     0.625960000000     0.836690000000    -0.0241959  
C540     C      0.993120000000     0.653050000000     0.850870000000     0.0182552  
C541     C      0.018530000000     0.663580000000     0.840560000000     0.0113515  
C542     C      0.031710000000     0.687400000000     0.853300000000    -0.0630561  
C543     C      0.028990000000     0.722370000000     0.896380000000    -0.0230975  
C544     C      0.979960000000     0.664900000000     0.874670000000    -0.068086   
C545     C      0.018070000000     0.699830000000     0.876820000000     0.0111016  
C546     C      0.993060000000     0.688500000000     0.887330000000     0.0184625  
C547     C      0.021930000000     0.841680000000     0.915840000000    -0.0235945  
C548     C      0.502220000000     0.956250000000     0.877180000000    -0.023448   
C549     C      0.996960000000     0.919350000000     0.840990000000    -0.0197086  
C550     C      0.003930000000     0.906150000000     0.868850000000     0.0116632  
C551     C      0.506570000000     0.927330000000     0.889350000000     0.0153378  
C552     C      0.512490000000     0.920420000000     0.917570000000    -0.0665892  
C553     C      0.522870000000     0.878650000000     0.951900000000    -0.0236295  
C554     C      0.009090000000     0.877120000000     0.875090000000    -0.0642191  
C555     C      0.516950000000     0.891420000000     0.923840000000     0.0152035  
C556     C      0.015510000000     0.870290000000     0.903380000000     0.01374    
C557     C      0.992260000000     0.824340000000     0.635360000000    -0.0194608  
C558     C      0.533290000000     0.924800000000     0.691260000000    -0.0241976  
C559     C      0.989640000000     0.905470000000     0.711310000000    -0.0192753  
C560     C      0.000940000000     0.885670000000     0.689160000000     0.00771829 
C561     C      0.526110000000     0.896930000000     0.678260000000     0.0164611  
C562     C      0.540260000000     0.883660000000     0.655900000000    -0.0673882  
C563     C      0.536980000000     0.844070000000     0.618570000000    -0.0244894  
C564     C      0.987930000000     0.861430000000     0.676910000000    -0.057598   
C565     C      0.527790000000     0.859170000000     0.644320000000     0.0165839  
C566     C      0.002320000000     0.847900000000     0.654430000000     0.00774722 
C567     C      0.042860000000     0.617930000000     0.689040000000    -0.0232956  
C568     C      0.481390000000     0.687260000000     0.610420000000    -0.0242613  
C569     C      0.031530000000     0.682550000000     0.600570000000    -0.0235639  
C570     C      0.023890000000     0.666080000000     0.626380000000     0.0127889  
C571     C      0.495020000000     0.667030000000     0.630540000000     0.0157579  
C572     C      0.482080000000     0.649530000000     0.650950000000    -0.0664378  
C573     C      0.492110000000     0.611070000000     0.689490000000    -0.025522   
C574     C      0.041900000000     0.651160000000     0.644840000000    -0.0642506  
C575     C      0.500020000000     0.633060000000     0.668170000000     0.0160273  
C576     C      0.029050000000     0.635270000000     0.666560000000     0.0126852  
C577     C      0.579650000000     0.029770000000     0.222310000000     0.395411   
C578     C      0.994460000000     0.471230000000     0.327450000000     0.398757   
C579     C      0.564140000000     0.035040000000     0.327940000000     0.40163    
C580     C      0.006450000000     0.454790000000     0.224800000000     0.393991   
C581     C      0.959120000000     0.509230000000     0.212050000000     0.396103   
C582     C      0.514470000000     0.094000000000     0.306800000000     0.392743   
C583     C      0.523230000000     0.079940000000     0.219250000000     0.388903   
C584     C      0.941720000000     0.523580000000     0.306890000000     0.392239   
C585     C      0.948060000000     0.226560000000     0.017850000000     0.389717   
C586     C      0.529500000000     0.327870000000     0.466420000000     0.392382   
C587     C      0.966930000000     0.327540000000     0.027320000000     0.395848   
C588     C      0.515490000000     0.231320000000     0.446710000000     0.39114    
C589     C      0.568240000000     0.210260000000     0.494780000000     0.401054   
C590     C      0.011300000000     0.311000000000     0.087080000000     0.396928   
C591     C      0.002170000000     0.213700000000     0.069760000000     0.391556   
C592     C      0.588020000000     0.309700000000     0.512080000000     0.398958   
C593     C      0.822200000000     0.034580000000     0.066560000000     0.400821   
C594     C      0.729560000000     0.445700000000     0.511350000000     0.398767   
C595     C      0.721880000000     0.025110000000     0.083330000000     0.399535   
C596     C      0.826130000000     0.468970000000     0.493900000000     0.400752   
C597     C      0.803190000000     0.521690000000     0.443450000000     0.3919     
C598     C      0.709960000000     0.068970000000     0.021990000000     0.393137   
C599     C      0.804720000000     0.090370000000     0.015090000000     0.389991   
C600     C      0.708280000000     0.501450000000     0.464370000000     0.394673   
C601     C      0.952400000000     0.378100000000     0.019020000000    -0.0229243  
C602     C      0.840830000000     0.417540000000     0.494420000000    -0.0234911  
C603     C      0.876570000000     0.454790000000     0.499000000000    -0.0235441  
C604     C      0.889290000000     0.426040000000     0.502860000000     0.015452   
C605     C      0.868860000000     0.404780000000     0.500940000000     0.0147708  
C606     C      0.875450000000     0.375650000000     0.005890000000    -0.0649691  
C607     C      0.916370000000     0.340850000000     0.019040000000    -0.0236908  
C608     C      0.917570000000     0.419570000000     0.508770000000    -0.066378   
C609     C      0.903740000000     0.369230000000     0.012240000000     0.0144776  
C610     C      0.924270000000     0.390480000000     0.012880000000     0.0147037  
C611     C      0.898010000000     0.215960000000     0.032250000000    -0.022775   
C612     C      0.835890000000     0.121890000000     0.486670000000    -0.0249769  
C613     C      0.816670000000     0.140750000000     0.030500000000    -0.0231784  
C614     C      0.840340000000     0.159240000000     0.020020000000     0.0103223  
C615     C      0.851120000000     0.148150000000     0.495080000000     0.0158315  
C616     C      0.876000000000     0.158720000000     0.482950000000    -0.0669937  
C617     C      0.917200000000     0.194050000000     0.489810000000    -0.0243826  
C618     C      0.853630000000     0.182490000000     0.033720000000    -0.0627445  
C619     C      0.889150000000     0.181770000000     0.496530000000     0.0156663  
C620     C      0.878280000000     0.193690000000     0.021040000000     0.0101731  
C621     C      0.636710000000     0.320740000000     0.493790000000    -0.0230971  
C622     C      0.701900000000     0.411720000000     0.540500000000    -0.024887   
C623     C      0.717450000000     0.396280000000     0.493910000000    -0.0233533  
C624     C      0.695340000000     0.376470000000     0.505230000000     0.0133042  
C625     C      0.686820000000     0.385440000000     0.531920000000     0.0165884  
C626     C      0.663580000000     0.373310000000     0.545650000000    -0.0672092  
C627     C      0.622140000000     0.338390000000     0.539970000000    -0.0242018  
C628     C      0.680820000000     0.354390000000     0.490940000000    -0.0641591  
C629     C      0.649400000000     0.351230000000     0.531620000000     0.0163995  
C630     C      0.657740000000     0.341720000000     0.505060000000     0.0133474  
C631     C      0.583890000000     0.159190000000     0.994400000000    -0.0223339  
C632     C      0.696590000000     0.120550000000     0.514080000000    -0.0237595  
C633     C      0.661030000000     0.083140000000     0.509360000000    -0.0232681  
C634     C      0.648290000000     0.111730000000     0.504930000000     0.0152785  
C635     C      0.668580000000     0.133120000000     0.506870000000     0.0143654  
C636     C      0.661460000000     0.161940000000     0.003030000000    -0.0675012  
C637     C      0.619520000000     0.196820000000     0.993670000000    -0.0216656  
C638     C      0.619700000000     0.118080000000     0.500720000000    -0.0665886  
C639     C      0.632900000000     0.168240000000     0.997660000000     0.0157077  
C640     C      0.612550000000     0.146820000000     0.997240000000     0.0174311  
C641     C      0.891460000000     0.509330000000     0.316240000000    -0.0238682  
C642     C      0.832440000000     0.552500000000     0.412250000000    -0.0245653  
C643     C      0.812820000000     0.508570000000     0.392830000000    -0.0239339  
C644     C      0.835350000000     0.520180000000     0.373880000000     0.0138809  
C645     C      0.846230000000     0.545390000000     0.385060000000     0.0155098  
C646     C      0.870180000000     0.558610000000     0.373600000000    -0.06652    
C647     C      0.910060000000     0.553120000000     0.337010000000    -0.0244367  
C648     C      0.848100000000     0.506870000000     0.350340000000    -0.0646316  
C649     C      0.882570000000     0.545630000000     0.349970000000     0.0155133  
C650     C      0.871890000000     0.520480000000     0.338470000000     0.0138824  
C651     C      0.693110000000     0.505990000000     0.413760000000    -0.0238911  
C652     C      0.579280000000     0.525330000000     0.377690000000    -0.0227097  
C653     C      0.614940000000     0.530180000000     0.340870000000    -0.0236252  
C654     C      0.628280000000     0.522490000000     0.368250000000     0.0151242  
C655     C      0.607990000000     0.520310000000     0.389350000000     0.0146073  
C656     C      0.615430000000     0.514480000000     0.417480000000    -0.0660917  
C657     C      0.657610000000     0.505270000000     0.451030000000    -0.0232807  
C658     C      0.657050000000     0.517810000000     0.373880000000    -0.0658533  
C659     C      0.644210000000     0.510290000000     0.423170000000     0.0144889  
C660     C      0.664440000000     0.511330000000     0.401930000000     0.0149366  
C661     C      0.607520000000     0.004030000000     0.185980000000    -0.0239533  
C662     C      0.707890000000     0.043730000000     0.131680000000    -0.0229301  
C663     C      0.686850000000     0.000100000000     0.112990000000    -0.0232552  
C664     C      0.672050000000     0.009170000000     0.138860000000     0.0173002  
C665     C      0.683850000000     0.033980000000     0.149960000000     0.0125813  
C666     C      0.671530000000     0.047760000000     0.173500000000    -0.063778   
C667     C      0.628440000000     0.045950000000     0.208360000000    -0.0228394  
C668     C      0.647260000000     0.997240000000     0.149710000000    -0.0691116  
C669     C      0.646900000000     0.035240000000     0.184970000000     0.0123295  
C670     C      0.635020000000     0.010930000000     0.172920000000     0.0174111  
C671     C      0.907940000000     0.510920000000     0.197390000000    -0.0232181  
C672     C      0.871680000000     0.028590000000     0.083150000000    -0.0234662  
C673     C      0.833910000000     0.030180000000     0.118090000000    -0.0232125  
C674     C      0.861610000000     0.024900000000     0.132060000000     0.0138588  
C675     C      0.883100000000     0.024850000000     0.112070000000     0.0161183  
C676     C      0.911430000000     0.021830000000     0.119830000000    -0.0671497  
C677     C      0.945100000000     0.515170000000     0.162020000000    -0.0240124  
C678     C      0.867290000000     0.020290000000     0.160970000000    -0.0648491  
C679     C      0.917090000000     0.517610000000     0.148610000000     0.0162509  
C680     C      0.895760000000     0.016500000000     0.168710000000     0.013733   
C681     C      0.485900000000     0.201440000000     0.414760000000    -0.024539   
C682     C      0.030380000000     0.143810000000     0.318510000000    -0.0239102  
C683     C      0.485030000000     0.126670000000     0.335720000000    -0.0246148  
C684     C      0.492830000000     0.153630000000     0.350110000000     0.015577   
C685     C      0.518290000000     0.164130000000     0.339860000000     0.0140278  
C686     C      0.531760000000     0.187580000000     0.352970000000    -0.0645922  
C687     C      0.529280000000     0.222180000000     0.396340000000    -0.0239206  
C688     C      0.479820000000     0.165270000000     0.374100000000    -0.0666193  
C689     C      0.518220000000     0.199860000000     0.376620000000     0.0139347  
C690     C      0.493130000000     0.188620000000     0.387020000000     0.0156454  
C691     C      0.522380000000     0.341800000000     0.415590000000    -0.0238449  
C692     C      0.001200000000     0.456030000000     0.377480000000    -0.0269332  
C693     C      0.497890000000     0.419680000000     0.340740000000    -0.0236352  
C694     C      0.504670000000     0.406430000000     0.368640000000     0.0143124  
C695     C      0.005670000000     0.427140000000     0.389710000000     0.0166437  
C696     C      0.011460000000     0.420270000000     0.417980000000    -0.0674585  
C697     C      0.021690000000     0.378580000000     0.452460000000    -0.0234186  
C698     C      0.509660000000     0.377360000000     0.374870000000    -0.0652629  
C699     C      0.015990000000     0.391290000000     0.424320000000     0.0151254  
C700     C      0.516040000000     0.370470000000     0.403150000000     0.0143426  
C701     C      0.491920000000     0.325300000000     0.134660000000    -0.0234299  
C702     C      0.033730000000     0.423900000000     0.191990000000    -0.0251597  
C703     C      0.489470000000     0.406170000000     0.210880000000    -0.0232244  
C704     C      0.500840000000     0.386370000000     0.188760000000     0.013127   
C705     C      0.026430000000     0.396140000000     0.178810000000     0.0186967  
C706     C      0.040660000000     0.382800000000     0.156530000000    -0.0694158  
C707     C      0.037540000000     0.343030000000     0.119310000000    -0.0255352  
C708     C      0.487860000000     0.362110000000     0.176500000000    -0.0639863  
C709     C      0.028160000000     0.358350000000     0.144900000000     0.0188185  
C710     C      0.502140000000     0.348700000000     0.153880000000     0.0131747  
C711     C      0.543160000000     0.118580000000     0.189270000000    -0.0240577  
C712     C      0.981510000000     0.187010000000     0.110580000000    -0.0230698  
C713     C      0.531930000000     0.182740000000     0.100410000000    -0.0242714  
C714     C      0.524240000000     0.166280000000     0.126230000000     0.0152699  
C715     C      0.995140000000     0.166880000000     0.130810000000     0.0164078  
C716     C      0.982180000000     0.149180000000     0.151040000000    -0.0635489  
C717     C      0.992130000000     0.110290000000     0.189170000000    -0.0217194  
C718     C      0.542230000000     0.151380000000     0.144750000000    -0.0657561  
C719     C      0.000090000000     0.132680000000     0.168260000000     0.011554   
C720     C      0.529370000000     0.135710000000     0.166620000000     0.0153404  
C721     C      0.579620000000     0.029810000000     0.722310000000     0.395432   
C722     C      0.994460000000     0.471240000000     0.827430000000     0.398766   
C723     C      0.564110000000     0.035100000000     0.827920000000     0.401587   
C724     C      0.006430000000     0.454770000000     0.724840000000     0.394218   
C725     C      0.959120000000     0.509240000000     0.712030000000     0.395934   
C726     C      0.514370000000     0.094020000000     0.806760000000     0.392928   
C727     C      0.523140000000     0.079930000000     0.719220000000     0.389098   
C728     C      0.941690000000     0.523570000000     0.806910000000     0.392337   
C729     C      0.947780000000     0.226840000000     0.517740000000     0.389837   
C730     C      0.529720000000     0.327870000000     0.966330000000     0.392424   
C731     C      0.966820000000     0.327670000000     0.527580000000     0.395916   
C732     C      0.515500000000     0.231310000000     0.946650000000     0.391036   
C733     C      0.568350000000     0.210130000000     0.994090000000     0.400701   
C734     C      0.011220000000     0.310930000000     0.587220000000     0.397022   
C735     C      0.001880000000     0.213660000000     0.569740000000     0.391372   
C736     C      0.588190000000     0.309510000000     0.012110000000     0.396856   
C737     C      0.822220000000     0.034830000000     0.566570000000     0.401109   
C738     C      0.729550000000     0.445560000000     0.011360000000     0.396709   
C739     C      0.721870000000     0.025250000000     0.583340000000     0.399401   
C740     C      0.826070000000     0.468750000000     0.993810000000     0.401097   
C741     C      0.803130000000     0.521560000000     0.943440000000     0.391531   
C742     C      0.710060000000     0.069090000000     0.521770000000     0.39344    
C743     C      0.804450000000     0.090630000000     0.514920000000     0.392294   
C744     C      0.708250000000     0.501400000000     0.964340000000     0.394676   
C745     C      0.952340000000     0.378260000000     0.519400000000    -0.0232387  
C746     C      0.840790000000     0.417310000000     0.994320000000    -0.019408   
C747     C      0.876520000000     0.454570000000     0.998790000000    -0.0194738  
C748     C      0.889270000000     0.425840000000     0.002630000000     0.0134339  
C749     C      0.868850000000     0.404560000000     0.000770000000     0.012813   
C750     C      0.875430000000     0.375860000000     0.506070000000    -0.065554   
C751     C      0.916280000000     0.341040000000     0.519310000000    -0.0236181  
C752     C      0.917570000000     0.419380000000     0.008460000000    -0.0657435  
C753     C      0.903700000000     0.369430000000     0.512510000000     0.0147373  
C754     C      0.924230000000     0.390670000000     0.513220000000     0.0151353  
C755     C      0.897750000000     0.216200000000     0.532130000000    -0.0236865  
C756     C      0.836400000000     0.121460000000     0.986980000000    -0.0242487  
C757     C      0.816320000000     0.140990000000     0.530300000000    -0.0239604  
C758     C      0.840140000000     0.159380000000     0.519950000000     0.0132307  
C759     C      0.851340000000     0.147980000000     0.995170000000     0.0184411  
C760     C      0.876220000000     0.158560000000     0.983050000000    -0.0684539  
C761     C      0.917560000000     0.193660000000     0.990020000000    -0.023699   
C762     C      0.853460000000     0.182580000000     0.533690000000    -0.0643892  
C763     C      0.889350000000     0.181640000000     0.996590000000     0.0183261  
C764     C      0.878100000000     0.193800000000     0.521010000000     0.0131454  
C765     C      0.636930000000     0.320450000000     0.993920000000    -0.0184734  
C766     C      0.701950000000     0.411570000000     0.040560000000    -0.0259089  
C767     C      0.717550000000     0.396100000000     0.993990000000    -0.0187662  
C768     C      0.695490000000     0.376240000000     0.005340000000     0.00692838 
C769     C      0.686950000000     0.385230000000     0.032020000000     0.0191909  
C770     C      0.663730000000     0.373070000000     0.045760000000    -0.0695527  
C771     C      0.622330000000     0.338100000000     0.040090000000    -0.025315   
C772     C      0.681010000000     0.354130000000     0.991070000000    -0.0568002  
C773     C      0.649590000000     0.350950000000     0.031750000000     0.0190166  
C774     C      0.657950000000     0.341430000000     0.005200000000     0.00692762 
C775     C      0.583820000000     0.159370000000     0.495300000000    -0.0236757  
C776     C      0.696520000000     0.120420000000     0.014360000000    -0.0261069  
C777     C      0.660890000000     0.082970000000     0.009780000000    -0.0256091  
C778     C      0.648210000000     0.111560000000     0.005180000000     0.0155803  
C779     C      0.668510000000     0.132940000000     0.007040000000     0.0146254  
C780     C      0.661470000000     0.162150000000     0.503210000000    -0.0653877  
C781     C      0.619450000000     0.197100000000     0.494640000000    -0.0231872  
C782     C      0.619650000000     0.117900000000     0.000680000000    -0.0688556  
C783     C      0.632880000000     0.168470000000     0.498080000000     0.0141548  
C784     C      0.612540000000     0.147030000000     0.497620000000     0.0157049  
C785     C      0.891430000000     0.509310000000     0.816250000000    -0.023852   
C786     C      0.832370000000     0.552400000000     0.912270000000    -0.0245739  
C787     C      0.812770000000     0.508480000000     0.892810000000    -0.0240059  
C788     C      0.835300000000     0.520120000000     0.873870000000     0.0139362  
C789     C      0.846180000000     0.545310000000     0.885080000000     0.0155017  
C790     C      0.870130000000     0.558540000000     0.873630000000    -0.066434   
C791     C      0.910030000000     0.553080000000     0.837050000000    -0.0242797  
C792     C      0.848060000000     0.506820000000     0.850330000000    -0.064644   
C793     C      0.882530000000     0.545570000000     0.850000000000     0.0154593  
C794     C      0.871860000000     0.520440000000     0.838470000000     0.0139038  
C795     C      0.693090000000     0.506000000000     0.913730000000    -0.0238029  
C796     C      0.579260000000     0.525430000000     0.877670000000    -0.0227229  
C797     C      0.614920000000     0.530250000000     0.840840000000    -0.0236492  
C798     C      0.628260000000     0.522560000000     0.868230000000     0.0151133  
C799     C      0.607970000000     0.520400000000     0.889340000000     0.014701   
C800     C      0.615410000000     0.514570000000     0.917460000000    -0.0661314  
C801     C      0.657590000000     0.505320000000     0.951010000000    -0.0234629  
C802     C      0.657030000000     0.517860000000     0.873850000000    -0.0657967  
C803     C      0.644190000000     0.510360000000     0.923150000000     0.0146949  
C804     C      0.664420000000     0.511380000000     0.901900000000     0.0148851  
C805     C      0.607520000000     0.004100000000     0.685980000000    -0.0238795  
C806     C      0.707860000000     0.043870000000     0.631680000000    -0.0229894  
C807     C      0.686840000000     0.000230000000     0.612980000000    -0.0232178  
C808     C      0.672030000000     0.009290000000     0.638850000000     0.0173081  
C809     C      0.683820000000     0.034110000000     0.649950000000     0.0126094  
C810     C      0.671490000000     0.047880000000     0.673500000000    -0.0638498  
C811     C      0.628410000000     0.046040000000     0.708350000000    -0.0229241  
C812     C      0.647250000000     0.997340000000     0.649710000000    -0.0691589  
C813     C      0.646870000000     0.035340000000     0.684960000000     0.0123868  
C814     C      0.635010000000     0.011020000000     0.672910000000     0.0174169  
C815     C      0.907940000000     0.510980000000     0.697370000000    -0.0231135  
C816     C      0.871700000000     0.028870000000     0.583150000000    -0.0234852  
C817     C      0.833920000000     0.030400000000     0.618090000000    -0.023196   
C818     C      0.861630000000     0.025100000000     0.632060000000     0.0138249  
C819     C      0.883120000000     0.025070000000     0.612070000000     0.0161877  
C820     C      0.911440000000     0.022010000000     0.619820000000    -0.0671841  
C821     C      0.945110000000     0.515230000000     0.662000000000    -0.0242107  
C822     C      0.867300000000     0.020430000000     0.660960000000    -0.064843   
C823     C      0.917090000000     0.517730000000     0.648600000000     0.0163342  
C824     C      0.895760000000     0.016610000000     0.668690000000     0.0137054  
C825     C      0.485850000000     0.201410000000     0.914780000000    -0.0245204  
C826     C      0.030200000000     0.143870000000     0.818430000000    -0.023814   
C827     C      0.484920000000     0.126650000000     0.835720000000    -0.0246191  
C828     C      0.492700000000     0.153630000000     0.850100000000     0.0155617  
C829     C      0.518120000000     0.164180000000     0.839790000000     0.0140972  
C830     C      0.531570000000     0.187650000000     0.852860000000    -0.0646043  
C831     C      0.529130000000     0.222250000000     0.896240000000    -0.0239095  
C832     C      0.479730000000     0.165240000000     0.874120000000    -0.0665693  
C833     C      0.518060000000     0.199910000000     0.876540000000     0.0139548  
C834     C      0.493020000000     0.188620000000     0.887010000000     0.0156655  
C835     C      0.522570000000     0.341820000000     0.915510000000    -0.0237347  
C836     C      0.001280000000     0.456040000000     0.877460000000    -0.0271128  
C837     C      0.497900000000     0.419690000000     0.840720000000    -0.0236046  
C838     C      0.504740000000     0.406440000000     0.868600000000     0.014303   
C839     C      0.005800000000     0.427140000000     0.889670000000     0.01683    
C840     C      0.011660000000     0.420280000000     0.917920000000    -0.0674914  
C841     C      0.021990000000     0.378590000000     0.952380000000    -0.0235207  
C842     C      0.509760000000     0.377370000000     0.874820000000    -0.0651948  
C843     C      0.016220000000     0.391310000000     0.924250000000     0.015335   
C844     C      0.516200000000     0.370480000000     0.903080000000     0.0143279  
C845     C      0.491880000000     0.325210000000     0.634820000000    -0.0234973  
C846     C      0.033730000000     0.423840000000     0.692080000000    -0.0251374  
C847     C      0.489440000000     0.406150000000     0.710970000000    -0.0233562  
C848     C      0.500820000000     0.386320000000     0.688870000000     0.0132043  
C849     C      0.026420000000     0.396060000000     0.678930000000     0.0186951  
C850     C      0.040650000000     0.382680000000     0.656670000000    -0.0694273  
C851     C      0.037530000000     0.342890000000     0.619480000000    -0.0256748  
C852     C      0.487830000000     0.362060000000     0.676630000000    -0.0640324  
C853     C      0.028150000000     0.358230000000     0.645060000000     0.0188907  
C854     C      0.502120000000     0.348610000000     0.654030000000     0.0132176  
C855     C      0.543020000000     0.118560000000     0.689210000000    -0.0240285  
C856     C      0.981240000000     0.186940000000     0.610570000000    -0.0238536  
C857     C      0.531660000000     0.182680000000     0.600350000000    -0.0242158  
C858     C      0.524000000000     0.166230000000     0.626180000000     0.0153051  
C859     C      0.994900000000     0.166830000000     0.630790000000     0.0183279  
C860     C      0.981970000000     0.149120000000     0.651030000000    -0.0677633  
C861     C      0.991990000000     0.110250000000     0.689160000000    -0.0249507  
C862     C      0.542020000000     0.151350000000     0.644680000000    -0.0657901  
C863     C      0.999910000000     0.132640000000     0.668240000000     0.0184287  
C864     C      0.529180000000     0.135680000000     0.666570000000     0.0153513  
C865     C      0.579640000000     0.529750000000     0.222330000000     0.395204   
C866     C      0.994380000000     0.971200000000     0.327400000000     0.398883   
C867     C      0.564120000000     0.535490000000     0.328030000000     0.401547   
C868     C      0.006420000000     0.954820000000     0.224720000000     0.394035   
C869     C      0.959120000000     0.009350000000     0.212030000000     0.395957   
C870     C      0.514400000000     0.594050000000     0.306730000000     0.392952   
C871     C      0.523220000000     0.579890000000     0.219170000000     0.389115   
C872     C      0.941710000000     0.023600000000     0.306840000000     0.39247    
C873     C      0.948060000000     0.726550000000     0.017810000000     0.389465   
C874     C      0.529500000000     0.827850000000     0.466350000000     0.392583   
C875     C      0.966940000000     0.827540000000     0.027280000000     0.395738   
C876     C      0.515470000000     0.731330000000     0.446650000000     0.391064   
C877     C      0.568250000000     0.710250000000     0.494720000000     0.40072    
C878     C      0.011300000000     0.810990000000     0.087020000000     0.397117   
C879     C      0.002180000000     0.713680000000     0.069690000000     0.391428   
C880     C      0.588020000000     0.809690000000     0.512010000000     0.39917    
C881     C      0.822190000000     0.534520000000     0.066570000000     0.400971   
C882     C      0.729560000000     0.945720000000     0.511310000000     0.398711   
C883     C      0.721870000000     0.525100000000     0.083350000000     0.399481   
C884     C      0.826140000000     0.968980000000     0.493910000000     0.400682   
C885     C      0.803220000000     0.021700000000     0.443440000000     0.391881   
C886     C      0.709960000000     0.568950000000     0.022000000000     0.392969   
C887     C      0.804720000000     0.590350000000     0.015100000000     0.390225   
C888     C      0.708310000000     0.001500000000     0.464330000000     0.395364   
C889     C      0.952410000000     0.878100000000     0.019010000000    -0.0230247  
C890     C      0.840840000000     0.917550000000     0.494430000000    -0.023518   
C891     C      0.876580000000     0.954800000000     0.499020000000    -0.0235837  
C892     C      0.889300000000     0.926050000000     0.502880000000     0.0154309  
C893     C      0.868870000000     0.904780000000     0.500940000000     0.014766   
C894     C      0.875460000000     0.875650000000     0.005880000000    -0.0649961  
C895     C      0.916380000000     0.840850000000     0.019020000000    -0.0235464  
C896     C      0.917580000000     0.919580000000     0.508780000000    -0.066418   
C897     C      0.903750000000     0.869240000000     0.012230000000     0.0144395  
C898     C      0.924280000000     0.890480000000     0.012880000000     0.014712   
C899     C      0.898020000000     0.715940000000     0.032230000000    -0.02288    
C900     C      0.835890000000     0.621860000000     0.486680000000    -0.0248743  
C901     C      0.816690000000     0.640720000000     0.030510000000    -0.0229598  
C902     C      0.840360000000     0.659220000000     0.020020000000     0.0102059  
C903     C      0.851130000000     0.648120000000     0.495080000000     0.015774   
C904     C      0.876000000000     0.658690000000     0.482940000000    -0.0669278  
C905     C      0.917200000000     0.694020000000     0.489780000000    -0.0243159  
C906     C      0.853650000000     0.682470000000     0.033710000000    -0.0626632  
C907     C      0.889150000000     0.681740000000     0.496520000000     0.0155999  
C908     C      0.878290000000     0.693670000000     0.021030000000     0.0101883  
C909     C      0.636710000000     0.820750000000     0.493720000000    -0.0231335  
C910     C      0.701880000000     0.911750000000     0.540440000000    -0.0248296  
C911     C      0.717440000000     0.896310000000     0.493850000000    -0.0234181  
C912     C      0.695330000000     0.876490000000     0.505170000000     0.0133208  
C913     C      0.686810000000     0.885460000000     0.531860000000     0.0165113  
C914     C      0.663560000000     0.873320000000     0.545590000000    -0.0671959  
C915     C      0.622130000000     0.838390000000     0.539910000000    -0.0242032  
C916     C      0.680820000000     0.854410000000     0.490880000000    -0.0641277  
C917     C      0.649390000000     0.851250000000     0.531550000000     0.0163939  
C918     C      0.657740000000     0.841740000000     0.505000000000     0.0133304  
C919     C      0.583900000000     0.659170000000     0.994350000000    -0.0223567  
C920     C      0.696590000000     0.620530000000     0.514080000000    -0.0237002  
C921     C      0.661040000000     0.583130000000     0.509340000000    -0.0231145  
C922     C      0.648290000000     0.611710000000     0.504900000000     0.0152123  
C923     C      0.668580000000     0.633110000000     0.506850000000     0.0143447  
C924     C      0.661460000000     0.661930000000     0.003010000000    -0.0674696  
C925     C      0.619520000000     0.696800000000     0.993630000000    -0.0215257  
C926     C      0.619700000000     0.618070000000     0.500670000000    -0.0665763  
C927     C      0.632910000000     0.668230000000     0.997620000000     0.0156528  
C928     C      0.612560000000     0.646800000000     0.997190000000     0.0174788  
C929     C      0.891440000000     0.009370000000     0.316190000000    -0.0229261  
C930     C      0.832470000000     0.052510000000     0.412240000000    -0.0245866  
C931     C      0.812850000000     0.008580000000     0.392820000000    -0.0230651  
C932     C      0.835370000000     0.020200000000     0.373850000000     0.013396   
C933     C      0.846250000000     0.045400000000     0.385040000000     0.0157715  
C934     C      0.870190000000     0.058630000000     0.373570000000    -0.0666963  
C935     C      0.910050000000     0.053150000000     0.336950000000    -0.0244222  
C936     C      0.848100000000     0.006900000000     0.350310000000    -0.0634891  
C937     C      0.882570000000     0.045650000000     0.349920000000     0.0157595  
C938     C      0.871890000000     0.020510000000     0.338420000000     0.0133613  
C939     C      0.693150000000     0.005950000000     0.413720000000    -0.0229803  
C940     C      0.579250000000     0.024730000000     0.377550000000    -0.0225631  
C941     C      0.614950000000     0.029480000000     0.340660000000    -0.023571   
C942     C      0.628280000000     0.022070000000     0.368120000000     0.0150112  
C943     C      0.608000000000     0.019950000000     0.389230000000     0.0144438  
C944     C      0.615460000000     0.014300000000     0.417390000000    -0.0659241  
C945     C      0.657650000000     0.005330000000     0.450990000000    -0.0225792  
C946     C      0.657070000000     0.017500000000     0.373780000000    -0.0657496  
C947     C      0.644250000000     0.010230000000     0.423110000000     0.0144253  
C948     C      0.664480000000     0.011210000000     0.401860000000     0.014803   
C949     C      0.607530000000     0.504000000000     0.186020000000    -0.0242047  
C950     C      0.707880000000     0.543730000000     0.131700000000    -0.02314    
C951     C      0.686850000000     0.500090000000     0.113020000000    -0.0242796  
C952     C      0.672050000000     0.509160000000     0.138890000000     0.0165376  
C953     C      0.683850000000     0.533970000000     0.149980000000     0.0129154  
C954     C      0.671520000000     0.547750000000     0.173520000000    -0.0641771  
C955     C      0.628440000000     0.545940000000     0.208380000000    -0.0231011  
C956     C      0.647270000000     0.497210000000     0.149750000000    -0.0676605  
C957     C      0.646900000000     0.535230000000     0.185000000000     0.0127433  
C958     C      0.635030000000     0.510910000000     0.172950000000     0.0164664  
C959     C      0.907920000000     0.011160000000     0.197420000000    -0.0231459  
C960     C      0.871660000000     0.528390000000     0.083150000000    -0.0234494  
C961     C      0.833910000000     0.530090000000     0.118110000000    -0.0232482  
C962     C      0.861600000000     0.524680000000     0.132060000000     0.0138149  
C963     C      0.883080000000     0.524560000000     0.112060000000     0.0160986  
C964     C      0.911400000000     0.521460000000     0.119810000000    -0.0672902  
C965     C      0.945110000000     0.015500000000     0.162030000000    -0.0234326  
C966     C      0.867270000000     0.520060000000     0.160970000000    -0.064835   
C967     C      0.917120000000     0.018020000000     0.148640000000     0.0161051  
C968     C      0.895720000000     0.516110000000     0.168680000000     0.0135588  
C969     C      0.485850000000     0.701470000000     0.414710000000    -0.024638   
C970     C      0.030270000000     0.643880000000     0.318410000000    -0.0238137  
C971     C      0.484940000000     0.626720000000     0.335640000000    -0.0245406  
C972     C      0.492740000000     0.653690000000     0.350030000000     0.0155026  
C973     C      0.518190000000     0.664200000000     0.339770000000     0.0141115  
C974     C      0.531660000000     0.687640000000     0.352870000000    -0.0646066  
C975     C      0.529220000000     0.722220000000     0.396270000000    -0.023914   
C976     C      0.479750000000     0.665320000000     0.374030000000    -0.0665217  
C977     C      0.518140000000     0.699910000000     0.376540000000     0.0139342  
C978     C      0.493060000000     0.688670000000     0.386950000000     0.0156359  
C979     C      0.522360000000     0.841780000000     0.415520000000    -0.0238836  
C980     C      0.001070000000     0.955990000000     0.377440000000    -0.0269491  
C981     C      0.497810000000     0.919650000000     0.340690000000    -0.0234968  
C982     C      0.504580000000     0.906400000000     0.368580000000     0.0142685  
C983     C      0.005570000000     0.927100000000     0.389660000000     0.0166024  
C984     C      0.011360000000     0.920240000000     0.417930000000    -0.067477   
C985     C      0.021640000000     0.878550000000     0.452400000000    -0.0234085  
C986     C      0.509610000000     0.877330000000     0.374810000000    -0.0652757  
C987     C      0.015920000000     0.891260000000     0.424260000000     0.0150861  
C988     C      0.515990000000     0.870440000000     0.403090000000     0.0143645  
C989     C      0.491920000000     0.825310000000     0.134590000000    -0.0233726  
C990     C      0.033690000000     0.923950000000     0.191890000000    -0.0251233  
C991     C      0.489430000000     0.906210000000     0.210780000000    -0.0232956  
C992     C      0.500810000000     0.886410000000     0.188660000000     0.013148   
C993     C      0.026400000000     0.896180000000     0.178720000000     0.0187006  
C994     C      0.040630000000     0.882840000000     0.156450000000    -0.0694429  
C995     C      0.037530000000     0.843050000000     0.119240000000    -0.0256049  
C996     C      0.487830000000     0.862140000000     0.176410000000    -0.0640059  
C997     C      0.028140000000     0.858380000000     0.144820000000     0.0188225  
C998     C      0.502130000000     0.848720000000     0.153790000000     0.0131556  
C999     C      0.543150000000     0.618520000000     0.189180000000    -0.0240606  
C1000    C      0.981500000000     0.686960000000     0.110500000000    -0.0231746  
C1001    C      0.531940000000     0.682720000000     0.100350000000    -0.0243091  
C1002    C      0.524230000000     0.666240000000     0.126150000000     0.0153138  
C1003    C      0.995130000000     0.666830000000     0.130720000000     0.0164652  
C1004    C      0.982160000000     0.649110000000     0.150930000000    -0.063623   
C1005    C      0.992120000000     0.610210000000     0.189050000000    -0.0216374  
C1006    C      0.542220000000     0.651340000000     0.144670000000    -0.0657893  
C1007    C      0.000070000000     0.632610000000     0.168150000000     0.0115388  
C1008    C      0.529350000000     0.635650000000     0.166520000000     0.0153594  
C1009    C      0.579620000000     0.529800000000     0.722330000000     0.395157   
C1010    C      0.994380000000     0.971220000000     0.827390000000     0.398824   
C1011    C      0.564090000000     0.535560000000     0.828010000000     0.401755   
C1012    C      0.006400000000     0.954800000000     0.724760000000     0.394037   
C1013    C      0.959110000000     0.009360000000     0.712010000000     0.395706   
C1014    C      0.514300000000     0.594080000000     0.806700000000     0.392711   
C1015    C      0.523130000000     0.579880000000     0.719150000000     0.389022   
C1016    C      0.941680000000     0.023590000000     0.806850000000     0.392462   
C1017    C      0.947790000000     0.726810000000     0.517690000000     0.389644   
C1018    C      0.529720000000     0.827850000000     0.966260000000     0.392437   
C1019    C      0.966830000000     0.827660000000     0.527540000000     0.39594    
C1020    C      0.515470000000     0.731320000000     0.946590000000     0.39086    
C1021    C      0.568360000000     0.710110000000     0.994040000000     0.4007     
C1022    C      0.011230000000     0.810920000000     0.587160000000     0.397139   
C1023    C      0.001880000000     0.713650000000     0.569680000000     0.391331   
C1024    C      0.588200000000     0.809500000000     0.012050000000     0.396537   
C1025    C      0.822210000000     0.534770000000     0.566580000000     0.400924   
C1026    C      0.729540000000     0.945580000000     0.011320000000     0.396556   
C1027    C      0.721870000000     0.525240000000     0.583360000000     0.399338   
C1028    C      0.826080000000     0.968760000000     0.993820000000     0.40095    
C1029    C      0.803160000000     0.021570000000     0.943430000000     0.39194    
C1030    C      0.710050000000     0.569080000000     0.521780000000     0.393514   
C1031    C      0.804450000000     0.590610000000     0.514930000000     0.392255   
C1032    C      0.708280000000     0.001450000000     0.964300000000     0.395401   
C1033    C      0.952350000000     0.878260000000     0.519400000000    -0.0231528  
C1034    C      0.840800000000     0.917320000000     0.994330000000    -0.0194128  
C1035    C      0.876540000000     0.954580000000     0.998810000000    -0.0195991  
C1036    C      0.889280000000     0.925850000000     0.002650000000     0.0134485  
C1037    C      0.868860000000     0.904570000000     0.000780000000     0.0127828  
C1038    C      0.875440000000     0.875870000000     0.506060000000    -0.0655422  
C1039    C      0.916290000000     0.841040000000     0.519290000000    -0.0237067  
C1040    C      0.917580000000     0.919390000000     0.008470000000    -0.0657847  
C1041    C      0.903710000000     0.869430000000     0.512500000000     0.0147462  
C1042    C      0.924240000000     0.890670000000     0.513220000000     0.0150773  
C1043    C      0.897760000000     0.716180000000     0.532110000000    -0.0238382  
C1044    C      0.836400000000     0.621430000000     0.986990000000    -0.024352   
C1045    C      0.816330000000     0.640970000000     0.530310000000    -0.0239737  
C1046    C      0.840150000000     0.659350000000     0.519950000000     0.0132604  
C1047    C      0.851340000000     0.647950000000     0.995170000000     0.0185251  
C1048    C      0.876220000000     0.658520000000     0.983040000000    -0.0685223  
C1049    C      0.917560000000     0.693630000000     0.989990000000    -0.023764   
C1050    C      0.853480000000     0.682560000000     0.533680000000    -0.0644335  
C1051    C      0.889350000000     0.681610000000     0.996570000000     0.0183592  
C1052    C      0.878110000000     0.693770000000     0.520990000000     0.0132379  
C1053    C      0.636930000000     0.820460000000     0.993850000000    -0.0185131  
C1054    C      0.701930000000     0.911590000000     0.040500000000    -0.0258791  
C1055    C      0.717540000000     0.896120000000     0.993940000000    -0.0188002  
C1056    C      0.695470000000     0.876270000000     0.005280000000     0.00696276 
C1057    C      0.686930000000     0.885250000000     0.031960000000     0.0191222  
C1058    C      0.663710000000     0.873080000000     0.045700000000    -0.0695378  
C1059    C      0.622320000000     0.838100000000     0.040030000000    -0.0253213  
C1060    C      0.681010000000     0.854150000000     0.991010000000    -0.0568387  
C1061    C      0.649580000000     0.850960000000     0.031680000000     0.0190018  
C1062    C      0.657950000000     0.841450000000     0.005140000000     0.00693849 
C1063    C      0.583830000000     0.659350000000     0.495250000000    -0.0236813  
C1064    C      0.696520000000     0.620400000000     0.014350000000    -0.0260658  
C1065    C      0.660900000000     0.582950000000     0.009760000000    -0.0255757  
C1066    C      0.648210000000     0.611540000000     0.005150000000     0.0155714  
C1067    C      0.668510000000     0.632930000000     0.007010000000     0.0145954  
C1068    C      0.661470000000     0.662130000000     0.503180000000    -0.0652982  
C1069    C      0.619460000000     0.697080000000     0.494600000000    -0.0232215  
C1070    C      0.619660000000     0.617890000000     0.000640000000    -0.0688794  
C1071    C      0.632880000000     0.668450000000     0.498050000000     0.014145   
C1072    C      0.612550000000     0.647010000000     0.497570000000     0.0157256  
C1073    C      0.891410000000     0.009350000000     0.816190000000    -0.0229842  
C1074    C      0.832410000000     0.052410000000     0.912260000000    -0.0246526  
C1075    C      0.812790000000     0.008500000000     0.892790000000    -0.0231357  
C1076    C      0.835320000000     0.020140000000     0.873850000000     0.0134275  
C1077    C      0.846200000000     0.045330000000     0.885060000000     0.0158303  
C1078    C      0.870150000000     0.058560000000     0.873610000000    -0.0667316  
C1079    C      0.910020000000     0.053110000000     0.837000000000    -0.0244639  
C1080    C      0.848060000000     0.006850000000     0.850300000000    -0.0634726  
C1081    C      0.882530000000     0.045600000000     0.849960000000     0.0158152  
C1082    C      0.871850000000     0.020470000000     0.838430000000     0.0133668  
C1083    C      0.693130000000     0.005960000000     0.913690000000    -0.0230026  
C1084    C      0.579240000000     0.024830000000     0.877540000000    -0.0226347  
C1085    C      0.614930000000     0.029550000000     0.840630000000    -0.0235977  
C1086    C      0.628260000000     0.022140000000     0.868100000000     0.0149815  
C1087    C      0.607980000000     0.020050000000     0.889210000000     0.014587   
C1088    C      0.615440000000     0.014400000000     0.917370000000    -0.0660025  
C1089    C      0.657630000000     0.005390000000     0.950970000000    -0.0227226  
C1090    C      0.657050000000     0.017550000000     0.873750000000    -0.0656901  
C1091    C      0.644230000000     0.010310000000     0.923090000000     0.0146208  
C1092    C      0.664460000000     0.011260000000     0.901840000000     0.0147778  
C1093    C      0.607530000000     0.504060000000     0.686020000000    -0.0243493  
C1094    C      0.707850000000     0.543870000000     0.631700000000    -0.0231518  
C1095    C      0.686850000000     0.500220000000     0.613010000000    -0.0242676  
C1096    C      0.672040000000     0.509280000000     0.638890000000     0.0165952  
C1097    C      0.683820000000     0.534100000000     0.649970000000     0.012876   
C1098    C      0.671480000000     0.547870000000     0.673520000000    -0.0641445  
C1099    C      0.628400000000     0.546030000000     0.708380000000    -0.0230994  
C1100    C      0.647270000000     0.497310000000     0.649740000000    -0.0677425  
C1101    C      0.646870000000     0.535330000000     0.684990000000     0.0127148  
C1102    C      0.635020000000     0.511000000000     0.672950000000     0.0165413  
C1103    C      0.907920000000     0.011220000000     0.697400000000    -0.0231146  
C1104    C      0.871680000000     0.528660000000     0.583150000000    -0.0234317  
C1105    C      0.833920000000     0.530320000000     0.618100000000    -0.0231834  
C1106    C      0.861610000000     0.524880000000     0.632060000000     0.0137468  
C1107    C      0.883090000000     0.524780000000     0.612060000000     0.0161709  
C1108    C      0.911410000000     0.521640000000     0.619800000000    -0.0673394  
C1109    C      0.945120000000     0.015560000000     0.662020000000    -0.0234446  
C1110    C      0.867280000000     0.520210000000     0.660960000000    -0.0648257  
C1111    C      0.917120000000     0.018140000000     0.648620000000     0.0161137  
C1112    C      0.895730000000     0.516220000000     0.668660000000     0.0134814  
C1113    C      0.485800000000     0.701440000000     0.914720000000    -0.0245631  
C1114    C      0.030100000000     0.643950000000     0.818320000000    -0.0239955  
C1115    C      0.484830000000     0.626710000000     0.835640000000    -0.0245768  
C1116    C      0.492610000000     0.653690000000     0.850020000000     0.0155366  
C1117    C      0.518010000000     0.664250000000     0.839690000000     0.0141335  
C1118    C      0.531480000000     0.687720000000     0.852760000000    -0.0646773  
C1119    C      0.529070000000     0.722290000000     0.896160000000    -0.0240126  
C1120    C      0.479650000000     0.665290000000     0.874050000000    -0.0665582  
C1121    C      0.517980000000     0.699960000000     0.876460000000     0.0140156  
C1122    C      0.492950000000     0.688660000000     0.886940000000     0.0156639  
C1123    C      0.522550000000     0.841790000000     0.915440000000    -0.0238296  
C1124    C      0.001150000000     0.956000000000     0.877420000000    -0.0270141  
C1125    C      0.497810000000     0.919660000000     0.840670000000    -0.0235223  
C1126    C      0.504650000000     0.906410000000     0.868550000000     0.014263   
C1127    C      0.005690000000     0.927110000000     0.889620000000     0.0167096  
C1128    C      0.011570000000     0.920250000000     0.917870000000    -0.0674362  
C1129    C      0.021940000000     0.878560000000     0.952320000000    -0.0235062  
C1130    C      0.509710000000     0.877350000000     0.874760000000    -0.0651703  
C1131    C      0.016150000000     0.891280000000     0.924190000000     0.0152796  
C1132    C      0.516160000000     0.870460000000     0.903020000000     0.0143329  
C1133    C      0.491880000000     0.825220000000     0.634750000000    -0.0233959  
C1134    C      0.033680000000     0.923880000000     0.691980000000    -0.0250186  
C1135    C      0.489400000000     0.906190000000     0.710860000000    -0.0232892  
C1136    C      0.500790000000     0.886360000000     0.688770000000     0.0131632  
C1137    C      0.026390000000     0.896100000000     0.678830000000     0.0186265  
C1138    C      0.040630000000     0.882720000000     0.656590000000    -0.0693577  
C1139    C      0.037520000000     0.842900000000     0.619410000000    -0.0255071  
C1140    C      0.487800000000     0.862090000000     0.676540000000    -0.064053   
C1141    C      0.028130000000     0.858260000000     0.644980000000     0.0187762  
C1142    C      0.502100000000     0.848630000000     0.653940000000     0.0131644  
C1143    C      0.543000000000     0.618510000000     0.689120000000    -0.0240593  
C1144    C      0.981230000000     0.686900000000     0.610490000000    -0.0238902  
C1145    C      0.531660000000     0.682660000000     0.600280000000    -0.0242479  
C1146    C      0.523990000000     0.666190000000     0.626100000000     0.0153013  
C1147    C      0.994900000000     0.666770000000     0.630700000000     0.0182969  
C1148    C      0.981960000000     0.649050000000     0.650930000000    -0.067713   
C1149    C      0.991970000000     0.610170000000     0.689050000000    -0.0250448  
C1150    C      0.542010000000     0.651310000000     0.644600000000    -0.0657527  
C1151    C      0.999890000000     0.632570000000     0.668140000000     0.0184376  
C1152    C      0.529170000000     0.635620000000     0.666470000000     0.0153639  
Co1      Co     0.018060000000     0.017320000000     0.230020000000     0.848548   
Co2      Co     0.504150000000     0.531730000000     0.308730000000     0.860839   
Co3      Co     0.045190000000     0.051280000000     0.270150000000     0.82521    
Co4      Co     0.482030000000     0.492850000000     0.269100000000     0.816824   
Co5      Co     0.510600000000     0.228360000000     0.009230000000     0.84987    
Co6      Co     0.026860000000     0.309230000000     0.526860000000     0.86741    
Co7      Co     0.486080000000     0.269510000000     0.045290000000     0.822233   
Co8      Co     0.046170000000     0.269790000000     0.486950000000     0.816585   
Co9      Co     0.305960000000     0.027850000000     0.005890000000     0.860431   
Co10     Co     0.227730000000     0.507980000000     0.523450000000     0.866992   
Co11     Co     0.265480000000     0.049050000000     0.043980000000     0.817735   
Co12     Co     0.266960000000     0.488680000000     0.483870000000     0.81592    
Co13     Co     0.018050000000     0.017300000000     0.730020000000     0.848394   
Co14     Co     0.504120000000     0.531750000000     0.808730000000     0.860892   
Co15     Co     0.045130000000     0.051310000000     0.770140000000     0.825126   
Co16     Co     0.482000000000     0.492870000000     0.769090000000     0.816814   
Co17     Co     0.510340000000     0.228460000000     0.509260000000     0.852832   
Co18     Co     0.027010000000     0.309190000000     0.026740000000     0.865279   
Co19     Co     0.485900000000     0.269560000000     0.545390000000     0.822213   
Co20     Co     0.046300000000     0.269750000000     0.986820000000     0.818353   
Co21     Co     0.305970000000     0.028080000000     0.505890000000     0.863995   
Co22     Co     0.227690000000     0.507860000000     0.023440000000     0.865236   
Co23     Co     0.265480000000     0.049200000000     0.543990000000     0.817972   
Co24     Co     0.266920000000     0.488530000000     0.983840000000     0.817961   
Co25     Co     0.018060000000     0.517300000000     0.230040000000     0.847943   
Co26     Co     0.504130000000     0.031690000000     0.308710000000     0.861433   
Co27     Co     0.045160000000     0.551330000000     0.270130000000     0.825284   
Co28     Co     0.482000000000     0.992850000000     0.269050000000     0.815597   
Co29     Co     0.510610000000     0.728350000000     0.009170000000     0.850141   
Co30     Co     0.026860000000     0.809210000000     0.526800000000     0.867137   
Co31     Co     0.486090000000     0.769500000000     0.045230000000     0.822054   
Co32     Co     0.046180000000     0.769780000000     0.486890000000     0.816495   
Co33     Co     0.305950000000     0.527830000000     0.005900000000     0.859973   
Co34     Co     0.227750000000     0.008000000000     0.523430000000     0.867503   
Co35     Co     0.265480000000     0.549040000000     0.044000000000     0.817817   
Co36     Co     0.266980000000     0.988690000000     0.483850000000     0.815165   
Co37     Co     0.018050000000     0.517280000000     0.730030000000     0.847935   
Co38     Co     0.504100000000     0.031700000000     0.808710000000     0.861494   
Co39     Co     0.045110000000     0.551360000000     0.770120000000     0.825223   
Co40     Co     0.481970000000     0.992870000000     0.769040000000     0.815633   
Co41     Co     0.510350000000     0.728450000000     0.509200000000     0.852825   
Co42     Co     0.027010000000     0.809180000000     0.026680000000     0.865505   
Co43     Co     0.485910000000     0.769550000000     0.545330000000     0.821988   
Co44     Co     0.046310000000     0.769730000000     0.986760000000     0.81847    
Co45     Co     0.305960000000     0.528060000000     0.505910000000     0.863596   
Co46     Co     0.227700000000     0.007880000000     0.023420000000     0.866007   
Co47     Co     0.265470000000     0.549190000000     0.544010000000     0.817796   
Co48     Co     0.266940000000     0.988540000000     0.983820000000     0.816956   
Co49     Co     0.518080000000     0.017970000000     0.230020000000     0.849774   
Co50     Co     0.003980000000     0.531240000000     0.308740000000     0.857638   
Co51     Co     0.545370000000     0.051710000000     0.270160000000     0.825622   
Co52     Co     0.981870000000     0.492400000000     0.269090000000     0.818314   
Co53     Co     0.010560000000     0.228320000000     0.009450000000     0.848014   
Co54     Co     0.526980000000     0.309280000000     0.526430000000     0.869069   
Co55     Co     0.986000000000     0.269340000000     0.045580000000     0.824381   
Co56     Co     0.546300000000     0.269740000000     0.486670000000     0.816169   
Co57     Co     0.805980000000     0.027810000000     0.005820000000     0.860469   
Co58     Co     0.727780000000     0.507890000000     0.523440000000     0.866976   
Co59     Co     0.765530000000     0.048970000000     0.043950000000     0.81759    
Co60     Co     0.767010000000     0.488590000000     0.483840000000     0.815939   
Co61     Co     0.518070000000     0.017960000000     0.730010000000     0.849937   
Co62     Co     0.003950000000     0.531260000000     0.808740000000     0.857773   
Co63     Co     0.545320000000     0.051750000000     0.770150000000     0.82572    
Co64     Co     0.981840000000     0.492420000000     0.769090000000     0.818295   
Co65     Co     0.010290000000     0.228420000000     0.509470000000     0.850853   
Co66     Co     0.527130000000     0.309250000000     0.026310000000     0.867303   
Co67     Co     0.985820000000     0.269390000000     0.545680000000     0.823982   
Co68     Co     0.546420000000     0.269690000000     0.986540000000     0.817844   
Co69     Co     0.805990000000     0.028030000000     0.505830000000     0.863735   
Co70     Co     0.727730000000     0.507770000000     0.023430000000     0.865259   
Co71     Co     0.765530000000     0.049120000000     0.543970000000     0.817847   
Co72     Co     0.766960000000     0.488440000000     0.983820000000     0.817947   
Co73     Co     0.518080000000     0.517950000000     0.230030000000     0.849212   
Co74     Co     0.003970000000     0.031200000000     0.308720000000     0.858164   
Co75     Co     0.545350000000     0.551760000000     0.270150000000     0.825789   
Co76     Co     0.981850000000     0.992400000000     0.269050000000     0.817109   
Co77     Co     0.010560000000     0.728310000000     0.009390000000     0.847952   
Co78     Co     0.526990000000     0.809270000000     0.526360000000     0.869048   
Co79     Co     0.986010000000     0.769330000000     0.045530000000     0.824275   
Co80     Co     0.546300000000     0.769720000000     0.486600000000     0.816071   
Co81     Co     0.805960000000     0.527790000000     0.005830000000     0.859779   
Co82     Co     0.727790000000     0.007910000000     0.523420000000     0.867592   
Co83     Co     0.765530000000     0.548950000000     0.043970000000     0.817717   
Co84     Co     0.767030000000     0.988600000000     0.483830000000     0.815293   
Co85     Co     0.518070000000     0.517930000000     0.730030000000     0.849206   
Co86     Co     0.003940000000     0.031220000000     0.808720000000     0.858347   
Co87     Co     0.545290000000     0.551800000000     0.770130000000     0.825781   
Co88     Co     0.981820000000     0.992420000000     0.769050000000     0.817082   
Co89     Co     0.010300000000     0.728410000000     0.509410000000     0.850761   
Co90     Co     0.527140000000     0.809230000000     0.026250000000     0.867275   
Co91     Co     0.985830000000     0.769380000000     0.545630000000     0.824011   
Co92     Co     0.546430000000     0.769680000000     0.986480000000     0.817671   
Co93     Co     0.805980000000     0.528010000000     0.505840000000     0.86337    
Co94     Co     0.727750000000     0.007790000000     0.023400000000     0.865839   
Co95     Co     0.765520000000     0.549100000000     0.543980000000     0.817876   
Co96     Co     0.766980000000     0.988450000000     0.983800000000     0.817057   
H1       H      0.385620000000     0.466000000000     0.479870000000     0.0461667  
H2       H      0.332930000000     0.410500000000     0.473190000000     0.0482407  
H3       H      0.359410000000     0.359120000000     0.004830000000     0.0454175  
H4       H      0.433610000000     0.436190000000     0.509120000000     0.0454016  
H5       H      0.467180000000     0.381980000000     0.500320000000     0.0475072  
H6       H      0.407500000000     0.331950000000     0.038190000000     0.049078   
H7       H      0.379980000000     0.468200000000     0.017460000000     0.0476774  
H8       H      0.324900000000     0.411450000000     0.010560000000     0.045357   
H9       H      0.412850000000     0.325390000000     0.501130000000     0.0445882  
H10      H      0.461960000000     0.387460000000     0.037370000000     0.0473271  
H11      H      0.296320000000     0.152560000000     0.029670000000     0.0448428  
H12      H      0.324260000000     0.125400000000     0.466580000000     0.0439996  
H13      H      0.385360000000     0.148690000000     0.464510000000     0.0445521  
H14      H      0.345980000000     0.190710000000     0.053780000000     0.0452481  
H15      H      0.388340000000     0.237680000000     0.031070000000     0.0463809  
H16      H      0.433750000000     0.177080000000     0.489090000000     0.0506611  
H17      H      0.320450000000     0.133470000000     0.052690000000     0.047915   
H18      H      0.350870000000     0.103700000000     0.483800000000     0.05316    
H19      H      0.416850000000     0.205260000000     0.468970000000     0.0438225  
H20      H      0.404190000000     0.211590000000     0.054560000000     0.0481608  
H21      H      0.211390000000     0.405190000000     0.472900000000     0.0485315  
H22      H      0.186750000000     0.429240000000     0.546200000000     0.0528027  
H23      H      0.155890000000     0.381910000000     0.565740000000     0.0452844  
H24      H      0.186190000000     0.348470000000     0.469580000000     0.046072   
H25      H      0.128220000000     0.327680000000     0.472840000000     0.0479712  
H26      H      0.124650000000     0.324780000000     0.059380000000     0.0451916  
H27      H      0.237980000000     0.385110000000     0.492070000000     0.0457926  
H28      H      0.215770000000     0.407420000000     0.059200000000     0.0448955  
H29      H      0.105920000000     0.355560000000     0.544490000000     0.0512314  
H30      H      0.146230000000     0.298970000000     0.992080000000     0.0460941  
H31      H      0.159160000000     0.069920000000     0.489740000000     0.0471621  
H32      H      0.212590000000     0.125530000000     0.497450000000     0.0446084  
H33      H      0.177220000000     0.178840000000     0.004490000000     0.045789   
H34      H      0.103800000000     0.101470000000     0.500160000000     0.0457461  
H35      H      0.073210000000     0.151900000000     0.475590000000     0.0462806  
H36      H      0.124690000000     0.211710000000     0.011490000000     0.0452298  
H37      H      0.150590000000     0.072020000000     0.027770000000     0.0481714  
H38      H      0.203960000000     0.128860000000     0.035080000000     0.0497173  
H39      H      0.126200000000     0.207370000000     0.474500000000     0.0482331  
H40      H      0.070470000000     0.153580000000     0.012860000000     0.0493307  
H41      H      0.317310000000     0.486130000000     0.399220000000     0.0493637  
H42      H      0.348310000000     0.555220000000     0.429590000000     0.0526618  
H43      H      0.379660000000     0.577430000000     0.383720000000     0.0444116  
H44      H      0.340880000000     0.486500000000     0.342640000000     0.0461865  
H45      H      0.398190000000     0.487000000000     0.320880000000     0.0492537  
H46      H      0.408660000000     0.073860000000     0.325360000000     0.0437749  
H47      H      0.291970000000     0.009600000000     0.382220000000     0.0454969  
H48      H      0.320180000000     0.072880000000     0.410450000000     0.0435357  
H49      H      0.427000000000     0.555400000000     0.353690000000     0.0515899  
H50      H      0.381530000000     0.010440000000     0.295180000000     0.0459435  
H51      H      0.119340000000     0.513260000000     0.324350000000     0.0469246  
H52      H      0.065630000000     0.505450000000     0.380280000000     0.0473169  
H53      H      0.099600000000     0.513130000000     0.434080000000     0.0450112  
H54      H      0.172770000000     0.519090000000     0.357320000000     0.0460986  
H55      H      0.202310000000     0.485850000000     0.405150000000     0.0486996  
H56      H      0.153130000000     0.023360000000     0.465700000000     0.0485434  
H57      H      0.122470000000     0.050250000000     0.332990000000     0.0487635  
H58      H      0.068790000000     0.042840000000     0.387960000000     0.0459647  
H59      H      0.149890000000     0.484960000000     0.460810000000     0.0468084  
H60      H      0.207660000000     0.024040000000     0.408990000000     0.0452168  
H61      H      0.171920000000     0.998110000000     0.094940000000     0.0509624  
H62      H      0.204350000000     0.066000000000     0.123700000000     0.0475746  
H63      H      0.179880000000     0.067590000000     0.181850000000     0.0456057  
H64      H      0.137570000000     0.978510000000     0.140020000000     0.0453755  
H65      H      0.090270000000     0.004150000000     0.170040000000     0.0501986  
H66      H      0.139220000000     0.544340000000     0.229120000000     0.0471039  
H67      H      0.197530000000     0.479030000000     0.116310000000     0.0462434  
H68      H      0.228080000000     0.543090000000     0.143500000000     0.0455699  
H69      H      0.121710000000     0.068460000000     0.204760000000     0.0469337  
H70      H      0.108090000000     0.482160000000     0.196130000000     0.0453632  
H71      H      0.324110000000     0.050640000000     0.125650000000     0.0484966  
H72      H      0.380530000000     0.048190000000     0.072830000000     0.0462041  
H73      H      0.428130000000     0.522740000000     0.104380000000     0.0461222  
H74      H      0.350410000000     0.019980000000     0.176690000000     0.045796   
H75      H      0.401930000000     0.028920000000     0.212710000000     0.0447181  
H76      H      0.457130000000     0.497370000000     0.153600000000     0.0477828  
H77      H      0.318760000000     0.012380000000     0.122330000000     0.0463966  
H78      H      0.376180000000     0.509530000000     0.069870000000     0.048705   
H79      H      0.457580000000     0.036170000000     0.158820000000     0.0506979  
H80      H      0.401120000000     0.490300000000     0.206130000000     0.0484927  
H81      H      0.465580000000     0.129680000000     0.322830000000     0.0441248  
H82      H      0.530010000000     0.155490000000     0.296590000000     0.0462644  
H83      H      0.552280000000     0.195030000000     0.345940000000     0.0463654  
H84      H      0.961300000000     0.155300000000     0.383770000000     0.0449775  
H85      H      0.965720000000     0.213710000000     0.413430000000     0.0431606  
H86      H      0.051370000000     0.217830000000     0.403150000000     0.0490121  
H87      H      0.982010000000     0.108500000000     0.352490000000     0.0526199  
H88      H      0.051770000000     0.136110000000     0.324710000000     0.0492371  
H89      H      0.528520000000     0.243730000000     0.386280000000     0.0463688  
H90      H      0.983560000000     0.184840000000     0.431730000000     0.0528937  
H91      H      0.476940000000     0.412200000000     0.333050000000     0.0480791  
H92      H      0.483710000000     0.467110000000     0.386950000000     0.0464801  
H93      H      0.513540000000     0.436810000000     0.433930000000     0.045159   
H94      H      0.008190000000     0.360770000000     0.358940000000     0.0453951  
H95      H      0.004290000000     0.326200000000     0.412110000000     0.0446416  
H96      H      0.041420000000     0.387620000000     0.461640000000     0.0469454  
H97      H      0.013370000000     0.414220000000     0.324900000000     0.0450558  
H98      H      0.521270000000     0.469990000000     0.380460000000     0.0490308  
H99      H      0.504910000000     0.382730000000     0.466940000000     0.0481391  
H100     H      0.041640000000     0.332690000000     0.407110000000     0.0489718  
H101     H      0.989220000000     0.394730000000     0.232360000000     0.0467931  
H102     H      0.553640000000     0.423480000000     0.203070000000     0.0450833  
H103     H      0.559470000000     0.392780000000     0.147040000000     0.0451766  
H104     H      0.967390000000     0.354130000000     0.183800000000     0.0449045  
H105     H      0.991460000000     0.303640000000     0.146810000000     0.0456383  
H106     H      0.540900000000     0.359630000000     0.100890000000     0.0522175  
H107     H      0.968020000000     0.412990000000     0.206070000000     0.0473437  
H108     H      0.535130000000     0.441970000000     0.174970000000     0.051044   
H109     H      0.556740000000     0.331890000000     0.122480000000     0.0456054  
H110     H      0.470700000000     0.330670000000     0.126010000000     0.0480994  
H111     H      0.040170000000     0.168180000000     0.083930000000     0.0492839  
H112     H      0.464420000000     0.176840000000     0.098330000000     0.0438823  
H113     H      0.459520000000     0.148740000000     0.153260000000     0.0460547  
H114     H      0.064880000000     0.151670000000     0.142420000000     0.0463235  
H115     H      0.059270000000     0.103260000000     0.180290000000     0.0449855  
H116     H      0.477870000000     0.120260000000     0.205940000000     0.041397   
H117     H      0.047920000000     0.199360000000     0.105360000000     0.0433396  
H118     H      0.472820000000     0.206270000000     0.121850000000     0.0503613  
H119     H      0.481660000000     0.092590000000     0.179390000000     0.0508768  
H120     H      0.053180000000     0.132080000000     0.205230000000     0.049419   
H121     H      0.385520000000     0.465780000000     0.979630000000     0.0457825  
H122     H      0.332840000000     0.410250000000     0.973100000000     0.0477468  
H123     H      0.359380000000     0.359350000000     0.504960000000     0.0460056  
H124     H      0.433610000000     0.436010000000     0.008740000000     0.0448573  
H125     H      0.467180000000     0.381790000000     0.999870000000     0.0492763  
H126     H      0.407370000000     0.332140000000     0.538440000000     0.049209   
H127     H      0.379980000000     0.468410000000     0.517690000000     0.0495587  
H128     H      0.324900000000     0.411680000000     0.510620000000     0.0474129  
H129     H      0.412920000000     0.325190000000     0.000860000000     0.0440809  
H130     H      0.461840000000     0.387580000000     0.537810000000     0.0470317  
H131     H      0.296070000000     0.153000000000     0.529560000000     0.0452788  
H132     H      0.324830000000     0.124650000000     0.966810000000     0.044356   
H133     H      0.385670000000     0.148410000000     0.964710000000     0.0450018  
H134     H      0.345790000000     0.190820000000     0.553730000000     0.0457712  
H135     H      0.387930000000     0.237850000000     0.531040000000     0.0467113  
H136     H      0.433710000000     0.176300000000     0.989770000000     0.0509561  
H137     H      0.320040000000     0.133550000000     0.552440000000     0.0482427  
H138     H      0.351900000000     0.103610000000     0.984770000000     0.0531649  
H139     H      0.417270000000     0.204850000000     0.969160000000     0.0442013  
H140     H      0.404080000000     0.211830000000     0.554410000000     0.0484536  
H141     H      0.211470000000     0.404950000000     0.972970000000     0.047876   
H142     H      0.186770000000     0.429050000000     0.046230000000     0.0528255  
H143     H      0.156010000000     0.381680000000     0.065830000000     0.0457536  
H144     H      0.186380000000     0.348210000000     0.969700000000     0.0445414  
H145     H      0.128470000000     0.327370000000     0.972950000000     0.0473377  
H146     H      0.124450000000     0.325100000000     0.559270000000     0.0451085  
H147     H      0.238120000000     0.384970000000     0.992170000000     0.0454082  
H148     H      0.215700000000     0.407510000000     0.559130000000     0.0448119  
H149     H      0.106110000000     0.355260000000     0.044630000000     0.0512957  
H150     H      0.146010000000     0.299270000000     0.491920000000     0.0465482  
H151     H      0.158950000000     0.069870000000     0.990100000000     0.0489726  
H152     H      0.212290000000     0.125380000000     0.997510000000     0.046547   
H153     H      0.177210000000     0.179050000000     0.504790000000     0.0458075  
H154     H      0.103740000000     0.101300000000     0.000110000000     0.0457222  
H155     H      0.073340000000     0.151580000000     0.974710000000     0.0461167  
H156     H      0.124820000000     0.211330000000     0.512920000000     0.0466471  
H157     H      0.150850000000     0.071700000000     0.527090000000     0.0479673  
H158     H      0.204410000000     0.128830000000     0.534720000000     0.049393   
H159     H      0.126400000000     0.206940000000     0.973510000000     0.0480149  
H160     H      0.071030000000     0.153530000000     0.514140000000     0.0506093  
H161     H      0.317240000000     0.486050000000     0.899170000000     0.0494324  
H162     H      0.348250000000     0.555110000000     0.929620000000     0.052841   
H163     H      0.379610000000     0.577350000000     0.883770000000     0.0444873  
H164     H      0.340830000000     0.486460000000     0.842600000000     0.0461854  
H165     H      0.398160000000     0.486980000000     0.820870000000     0.0492929  
H166     H      0.408640000000     0.073830000000     0.825420000000     0.0437905  
H167     H      0.291920000000     0.009530000000     0.882190000000     0.0455089  
H168     H      0.320120000000     0.072780000000     0.910480000000     0.0436708  
H169     H      0.426960000000     0.555340000000     0.853750000000     0.0516286  
H170     H      0.381500000000     0.010440000000     0.795180000000     0.0459347  
H171     H      0.119310000000     0.513330000000     0.824330000000     0.0469149  
H172     H      0.065610000000     0.505560000000     0.880280000000     0.0473346  
H173     H      0.099580000000     0.513240000000     0.934060000000     0.0452104  
H174     H      0.172750000000     0.519120000000     0.857290000000     0.0460841  
H175     H      0.202270000000     0.485860000000     0.905110000000     0.0487535  
H176     H      0.153150000000     0.023430000000     0.965670000000     0.0488488  
H177     H      0.122450000000     0.050320000000     0.832950000000     0.0487606  
H178     H      0.068780000000     0.042950000000     0.887930000000     0.0460637  
H179     H      0.149840000000     0.485030000000     0.960790000000     0.0471565  
H180     H      0.207650000000     0.024040000000     0.908970000000     0.0452645  
H181     H      0.171910000000     0.998240000000     0.594930000000     0.0510437  
H182     H      0.204300000000     0.066140000000     0.623690000000     0.0475733  
H183     H      0.179830000000     0.067720000000     0.681840000000     0.0455846  
H184     H      0.137580000000     0.978600000000     0.640010000000     0.0454286  
H185     H      0.090270000000     0.004200000000     0.670040000000     0.0502398  
H186     H      0.139190000000     0.544440000000     0.729120000000     0.047041   
H187     H      0.197540000000     0.479160000000     0.616300000000     0.0462802  
H188     H      0.228050000000     0.543250000000     0.643500000000     0.0455668  
H189     H      0.121650000000     0.068540000000     0.704750000000     0.0469507  
H190     H      0.108110000000     0.482220000000     0.696130000000     0.0453433  
H191     H      0.324130000000     0.050860000000     0.625670000000     0.0484962  
H192     H      0.380550000000     0.048490000000     0.572870000000     0.0463945  
H193     H      0.428140000000     0.522930000000     0.604380000000     0.0462717  
H194     H      0.350420000000     0.020110000000     0.676680000000     0.0458167  
H195     H      0.401950000000     0.028970000000     0.712710000000     0.0447202  
H196     H      0.457110000000     0.497430000000     0.653570000000     0.047844   
H197     H      0.318770000000     0.012610000000     0.622310000000     0.0464637  
H198     H      0.376200000000     0.509840000000     0.569840000000     0.0488914  
H199     H      0.457610000000     0.036220000000     0.658830000000     0.0507083  
H200     H      0.401090000000     0.490360000000     0.706080000000     0.048507   
H201     H      0.465440000000     0.129630000000     0.822870000000     0.044131   
H202     H      0.529770000000     0.155540000000     0.796500000000     0.0462761  
H203     H      0.552060000000     0.195150000000     0.845790000000     0.0463872  
H204     H      0.961250000000     0.155230000000     0.883830000000     0.045051   
H205     H      0.965630000000     0.213640000000     0.913510000000     0.0432697  
H206     H      0.051240000000     0.217960000000     0.902970000000     0.0491395  
H207     H      0.981960000000     0.108480000000     0.852500000000     0.0526868  
H208     H      0.051620000000     0.136220000000     0.824590000000     0.0492257  
H209     H      0.528290000000     0.243800000000     0.886180000000     0.0463836  
H210     H      0.983590000000     0.184800000000     0.931750000000     0.0531574  
H211     H      0.476930000000     0.412210000000     0.833080000000     0.0480875  
H212     H      0.483800000000     0.467110000000     0.886960000000     0.0465739  
H213     H      0.513770000000     0.436830000000     0.933870000000     0.0453707  
H214     H      0.008250000000     0.360780000000     0.858890000000     0.0454037  
H215     H      0.004470000000     0.326220000000     0.912060000000     0.0448234  
H216     H      0.041760000000     0.387610000000     0.961500000000     0.0472605  
H217     H      0.013340000000     0.414240000000     0.824830000000     0.0450652  
H218     H      0.521350000000     0.470010000000     0.880400000000     0.0490648  
H219     H      0.505250000000     0.382760000000     0.966910000000     0.048487   
H220     H      0.041810000000     0.332690000000     0.906990000000     0.0490258  
H221     H      0.989180000000     0.394740000000     0.732440000000     0.0467752  
H222     H      0.553630000000     0.423420000000     0.703190000000     0.0450298  
H223     H      0.559480000000     0.392640000000     0.647190000000     0.0452455  
H224     H      0.967350000000     0.354100000000     0.683910000000     0.0449104  
H225     H      0.991400000000     0.303560000000     0.646970000000     0.0456518  
H226     H      0.540930000000     0.359470000000     0.601070000000     0.0523049  
H227     H      0.968000000000     0.412980000000     0.706120000000     0.0473236  
H228     H      0.535140000000     0.441880000000     0.675050000000     0.0510302  
H229     H      0.556710000000     0.331710000000     0.622680000000     0.0455828  
H230     H      0.470670000000     0.330600000000     0.626160000000     0.04814    
H231     H      0.039880000000     0.168120000000     0.583860000000     0.0493151  
H232     H      0.464150000000     0.176770000000     0.598340000000     0.043936   
H233     H      0.459320000000     0.148670000000     0.653280000000     0.0460933  
H234     H      0.064660000000     0.151660000000     0.642330000000     0.0458773  
H235     H      0.059130000000     0.103260000000     0.680230000000     0.0447192  
H236     H      0.477740000000     0.120210000000     0.705950000000     0.0413767  
H237     H      0.047650000000     0.199310000000     0.605270000000     0.0432802  
H238     H      0.472560000000     0.206200000000     0.621840000000     0.0503662  
H239     H      0.481520000000     0.092530000000     0.679400000000     0.0508737  
H240     H      0.053040000000     0.132090000000     0.705160000000     0.0491245  
H241     H      0.385630000000     0.966010000000     0.479890000000     0.0460623  
H242     H      0.332940000000     0.910520000000     0.473190000000     0.0481783  
H243     H      0.359410000000     0.859130000000     0.004810000000     0.0453894  
H244     H      0.433630000000     0.936190000000     0.509130000000     0.0453044  
H245     H      0.467190000000     0.881980000000     0.500310000000     0.0475289  
H246     H      0.407510000000     0.831940000000     0.038160000000     0.0491268  
H247     H      0.379980000000     0.968200000000     0.017480000000     0.04759    
H248     H      0.324910000000     0.911460000000     0.010560000000     0.0453097  
H249     H      0.412850000000     0.825400000000     0.501100000000     0.0445765  
H250     H      0.461960000000     0.887450000000     0.037360000000     0.0472888  
H251     H      0.296330000000     0.652540000000     0.029690000000     0.0448424  
H252     H      0.324250000000     0.625370000000     0.466590000000     0.043975   
H253     H      0.385360000000     0.648650000000     0.464500000000     0.0445206  
H254     H      0.346000000000     0.690700000000     0.053770000000     0.0452736  
H255     H      0.388360000000     0.737660000000     0.031040000000     0.0463919  
H256     H      0.433750000000     0.677060000000     0.489060000000     0.0506708  
H257     H      0.320460000000     0.633450000000     0.052700000000     0.0479254  
H258     H      0.350870000000     0.603670000000     0.483800000000     0.0530963  
H259     H      0.416840000000     0.705230000000     0.468940000000     0.0438296  
H260     H      0.404200000000     0.711570000000     0.054540000000     0.0481352  
H261     H      0.211390000000     0.905220000000     0.472840000000     0.048498   
H262     H      0.186730000000     0.929260000000     0.546140000000     0.0527281  
H263     H      0.155870000000     0.881920000000     0.565680000000     0.0452402  
H264     H      0.186190000000     0.848500000000     0.469510000000     0.0460274  
H265     H      0.128220000000     0.827680000000     0.472770000000     0.0479561  
H266     H      0.124660000000     0.824780000000     0.059310000000     0.045223   
H267     H      0.237970000000     0.885130000000     0.492010000000     0.0457907  
H268     H      0.215740000000     0.907440000000     0.059150000000     0.0448701  
H269     H      0.105910000000     0.855550000000     0.544430000000     0.0512232  
H270     H      0.146240000000     0.798980000000     0.992010000000     0.0460993  
H271     H      0.159180000000     0.569900000000     0.489730000000     0.0471202  
H272     H      0.212590000000     0.625520000000     0.497450000000     0.0446116  
H273     H      0.177220000000     0.678820000000     0.004470000000     0.0458317  
H274     H      0.103800000000     0.601460000000     0.500120000000     0.0457299  
H275     H      0.073230000000     0.651880000000     0.475540000000     0.0462568  
H276     H      0.124690000000     0.711700000000     0.011450000000     0.0452618  
H277     H      0.150590000000     0.572000000000     0.027740000000     0.0481501  
H278     H      0.203950000000     0.628850000000     0.035080000000     0.0497336  
H279     H      0.126220000000     0.707350000000     0.474470000000     0.0482382  
H280     H      0.070470000000     0.653570000000     0.012810000000     0.0492917  
H281     H      0.317330000000     0.986150000000     0.399190000000     0.0487577  
H282     H      0.348360000000     0.055210000000     0.429580000000     0.0526609  
H283     H      0.379670000000     0.077450000000     0.383680000000     0.0444622  
H284     H      0.340870000000     0.986530000000     0.342600000000     0.0455092  
H285     H      0.398170000000     0.987040000000     0.320810000000     0.0486687  
H286     H      0.408680000000     0.573830000000     0.325410000000     0.0437593  
H287     H      0.291960000000     0.509580000000     0.382220000000     0.0455755  
H288     H      0.320140000000     0.572870000000     0.410450000000     0.0435624  
H289     H      0.426990000000     0.055440000000     0.353630000000     0.0516498  
H290     H      0.381560000000     0.510390000000     0.295230000000     0.0460132  
H291     H      0.119430000000     0.012180000000     0.324590000000     0.0469306  
H292     H      0.066040000000     0.004590000000     0.380250000000     0.0473151  
H293     H      0.099620000000     0.012980000000     0.433990000000     0.0450774  
H294     H      0.172780000000     0.018730000000     0.357210000000     0.0460876  
H295     H      0.202380000000     0.985800000000     0.405160000000     0.0481088  
H296     H      0.153100000000     0.523240000000     0.465810000000     0.0487216  
H297     H      0.122430000000     0.550890000000     0.333100000000     0.0486563  
H298     H      0.068650000000     0.543310000000     0.388090000000     0.0458689  
H299     H      0.149930000000     0.985050000000     0.460850000000     0.0462455  
H300     H      0.207650000000     0.524070000000     0.409080000000     0.045342   
H301     H      0.171920000000     0.498090000000     0.094980000000     0.0516036  
H302     H      0.204330000000     0.565990000000     0.123720000000     0.0476022  
H303     H      0.179870000000     0.567590000000     0.181870000000     0.0456634  
H304     H      0.137590000000     0.478480000000     0.140050000000     0.04522    
H305     H      0.090280000000     0.504110000000     0.170070000000     0.0501039  
H306     H      0.139230000000     0.044340000000     0.229100000000     0.0471705  
H307     H      0.197520000000     0.979040000000     0.116270000000     0.0456626  
H308     H      0.228080000000     0.043090000000     0.143480000000     0.0455858  
H309     H      0.121700000000     0.568440000000     0.204770000000     0.046949   
H310     H      0.108070000000     0.982180000000     0.196080000000     0.0449088  
H311     H      0.324200000000     0.550590000000     0.125680000000     0.0484822  
H312     H      0.380580000000     0.547960000000     0.072850000000     0.0461742  
H313     H      0.428150000000     0.023110000000     0.104400000000     0.0462211  
H314     H      0.350410000000     0.519860000000     0.176710000000     0.0457006  
H315     H      0.401640000000     0.528520000000     0.212720000000     0.0444352  
H316     H      0.457130000000     0.997740000000     0.153550000000     0.0472249  
H317     H      0.318690000000     0.512360000000     0.122340000000     0.0463525  
H318     H      0.376270000000     0.009730000000     0.069900000000     0.0488369  
H319     H      0.457560000000     0.535820000000     0.158720000000     0.0508171  
H320     H      0.401260000000     0.990420000000     0.206000000000     0.0482861  
H321     H      0.465480000000     0.629730000000     0.322760000000     0.0440841  
H322     H      0.529870000000     0.655560000000     0.296490000000     0.0463036  
H323     H      0.552180000000     0.695100000000     0.345840000000     0.0463683  
H324     H      0.961240000000     0.655340000000     0.383710000000     0.0449798  
H325     H      0.965670000000     0.713750000000     0.413390000000     0.0431618  
H326     H      0.051310000000     0.717860000000     0.403050000000     0.0490304  
H327     H      0.981930000000     0.608550000000     0.352410000000     0.052654   
H328     H      0.051670000000     0.636190000000     0.324600000000     0.0492547  
H329     H      0.528460000000     0.743770000000     0.386220000000     0.0463658  
H330     H      0.983520000000     0.684860000000     0.431670000000     0.0528892  
H331     H      0.476850000000     0.912160000000     0.332990000000     0.0479928  
H332     H      0.483550000000     0.967040000000     0.386900000000     0.0463354  
H333     H      0.513420000000     0.936780000000     0.433880000000     0.0450426  
H334     H      0.008170000000     0.860750000000     0.358870000000     0.0453915  
H335     H      0.004290000000     0.826160000000     0.412040000000     0.0446449  
H336     H      0.041370000000     0.887610000000     0.461590000000     0.046894   
H337     H      0.013290000000     0.914210000000     0.324850000000     0.0450464  
H338     H      0.521110000000     0.969980000000     0.380440000000     0.0489011  
H339     H      0.504850000000     0.882680000000     0.466880000000     0.0481199  
H340     H      0.041630000000     0.832690000000     0.407050000000     0.0489789  
H341     H      0.989180000000     0.894770000000     0.232260000000     0.0467408  
H342     H      0.553600000000     0.923540000000     0.202960000000     0.0449916  
H343     H      0.559430000000     0.892830000000     0.146940000000     0.0451494  
H344     H      0.967370000000     0.854150000000     0.183720000000     0.0448816  
H345     H      0.991460000000     0.803660000000     0.146750000000     0.0456321  
H346     H      0.540880000000     0.859640000000     0.100810000000     0.0521979  
H347     H      0.967980000000     0.913030000000     0.205970000000     0.0472336  
H348     H      0.535070000000     0.942020000000     0.174860000000     0.0508949  
H349     H      0.556740000000     0.831930000000     0.122410000000     0.0455844  
H350     H      0.470690000000     0.830670000000     0.125930000000     0.0480733  
H351     H      0.040180000000     0.668170000000     0.083860000000     0.0492999  
H352     H      0.464420000000     0.676800000000     0.098230000000     0.0438478  
H353     H      0.459510000000     0.648660000000     0.153140000000     0.0460539  
H354     H      0.064870000000     0.651640000000     0.142360000000     0.046331   
H355     H      0.059260000000     0.603210000000     0.180200000000     0.0450157  
H356     H      0.477840000000     0.620160000000     0.205810000000     0.0413967  
H357     H      0.047910000000     0.699330000000     0.105310000000     0.0433562  
H358     H      0.472800000000     0.706210000000     0.121770000000     0.0503388  
H359     H      0.481670000000     0.592490000000     0.179250000000     0.0508736  
H360     H      0.053150000000     0.632030000000     0.205140000000     0.0494649  
H361     H      0.385530000000     0.965790000000     0.979650000000     0.0457014  
H362     H      0.332850000000     0.910270000000     0.973110000000     0.0477126  
H363     H      0.359390000000     0.859360000000     0.504950000000     0.0460159  
H364     H      0.433620000000     0.936010000000     0.008760000000     0.0447585  
H365     H      0.467190000000     0.881800000000     0.999860000000     0.0492431  
H366     H      0.407380000000     0.832130000000     0.538420000000     0.0491687  
H367     H      0.379980000000     0.968420000000     0.517710000000     0.0494404  
H368     H      0.324910000000     0.911690000000     0.510630000000     0.0473408  
H369     H      0.412920000000     0.825200000000     0.000830000000     0.0441299  
H370     H      0.461850000000     0.887560000000     0.537800000000     0.0470238  
H371     H      0.296080000000     0.652980000000     0.529570000000     0.0453085  
H372     H      0.324820000000     0.624620000000     0.966820000000     0.0443669  
H373     H      0.385670000000     0.648380000000     0.964700000000     0.044969   
H374     H      0.345810000000     0.690810000000     0.553720000000     0.0458028  
H375     H      0.387940000000     0.737820000000     0.531010000000     0.0467402  
H376     H      0.433720000000     0.676270000000     0.989740000000     0.050907   
H377     H      0.320060000000     0.633530000000     0.552440000000     0.0482858  
H378     H      0.351890000000     0.603580000000     0.984780000000     0.0531638  
H379     H      0.417260000000     0.704820000000     0.969130000000     0.0441609  
H380     H      0.404100000000     0.711820000000     0.554380000000     0.0484835  
H381     H      0.211460000000     0.904980000000     0.972910000000     0.0478236  
H382     H      0.186740000000     0.929070000000     0.046170000000     0.0527518  
H383     H      0.156000000000     0.881690000000     0.065770000000     0.0457352  
H384     H      0.186380000000     0.848230000000     0.969640000000     0.0445284  
H385     H      0.128470000000     0.827370000000     0.972880000000     0.0473211  
H386     H      0.124460000000     0.825100000000     0.559210000000     0.0451052  
H387     H      0.238100000000     0.885000000000     0.992120000000     0.0454233  
H388     H      0.215670000000     0.907530000000     0.559080000000     0.0447555  
H389     H      0.106110000000     0.855250000000     0.044570000000     0.0513048  
H390     H      0.146010000000     0.799280000000     0.491860000000     0.0465799  
H391     H      0.158960000000     0.569850000000     0.990080000000     0.0489529  
H392     H      0.212300000000     0.625360000000     0.997520000000     0.046564   
H393     H      0.177220000000     0.679040000000     0.504780000000     0.0458137  
H394     H      0.103750000000     0.601290000000     0.000070000000     0.0456854  
H395     H      0.073360000000     0.651560000000     0.974660000000     0.0460826  
H396     H      0.124820000000     0.711320000000     0.512890000000     0.0466692  
H397     H      0.150840000000     0.571690000000     0.527080000000     0.0478594  
H398     H      0.204400000000     0.628820000000     0.534720000000     0.0493936  
H399     H      0.126410000000     0.706930000000     0.973470000000     0.0480446  
H400     H      0.071030000000     0.653510000000     0.514080000000     0.0505981  
H401     H      0.317270000000     0.986060000000     0.899150000000     0.0488097  
H402     H      0.348290000000     0.055100000000     0.929600000000     0.0529088  
H403     H      0.379620000000     0.077370000000     0.883740000000     0.0445377  
H404     H      0.340830000000     0.986490000000     0.842560000000     0.0455126  
H405     H      0.398140000000     0.987020000000     0.820800000000     0.0487016  
H406     H      0.408660000000     0.573800000000     0.825480000000     0.0437823  
H407     H      0.291910000000     0.509520000000     0.882190000000     0.0455809  
H408     H      0.320080000000     0.572770000000     0.910480000000     0.0436386  
H409     H      0.426950000000     0.055380000000     0.853680000000     0.0516956  
H410     H      0.381540000000     0.510390000000     0.795230000000     0.046025   
H411     H      0.119400000000     0.012250000000     0.824570000000     0.046921   
H412     H      0.066020000000     0.004700000000     0.880240000000     0.0473876  
H413     H      0.099610000000     0.013080000000     0.933980000000     0.0452741  
H414     H      0.172760000000     0.018760000000     0.857180000000     0.0460967  
H415     H      0.202340000000     0.985810000000     0.905120000000     0.0481348  
H416     H      0.153110000000     0.523310000000     0.965780000000     0.0490352  
H417     H      0.122410000000     0.550960000000     0.833070000000     0.0486616  
H418     H      0.068640000000     0.543420000000     0.888070000000     0.0459311  
H419     H      0.149880000000     0.985120000000     0.960830000000     0.0465382  
H420     H      0.207640000000     0.524070000000     0.909060000000     0.0454064  
H421     H      0.171920000000     0.498220000000     0.594970000000     0.0516951  
H422     H      0.204290000000     0.566130000000     0.623710000000     0.0476034  
H423     H      0.179810000000     0.567720000000     0.681860000000     0.045651   
H424     H      0.137600000000     0.478570000000     0.640050000000     0.0452237  
H425     H      0.090280000000     0.504150000000     0.670080000000     0.0501431  
H426     H      0.139190000000     0.044450000000     0.729090000000     0.0471618  
H427     H      0.197520000000     0.979170000000     0.616260000000     0.045699   
H428     H      0.228050000000     0.043250000000     0.643470000000     0.0455853  
H429     H      0.121640000000     0.568530000000     0.704760000000     0.0469212  
H430     H      0.108100000000     0.982250000000     0.696090000000     0.0449174  
H431     H      0.324230000000     0.550820000000     0.625700000000     0.0484649  
H432     H      0.380600000000     0.548260000000     0.572890000000     0.0463574  
H433     H      0.428160000000     0.023300000000     0.604400000000     0.0463599  
H434     H      0.350410000000     0.520000000000     0.676690000000     0.0456877  
H435     H      0.401660000000     0.528570000000     0.712720000000     0.0444668  
H436     H      0.457100000000     0.997790000000     0.653510000000     0.0472222  
H437     H      0.318700000000     0.512590000000     0.622320000000     0.0464036  
H438     H      0.376290000000     0.010040000000     0.569870000000     0.0490318  
H439     H      0.457590000000     0.535870000000     0.658730000000     0.0508829  
H440     H      0.401230000000     0.990480000000     0.705950000000     0.0482659  
H441     H      0.465350000000     0.629680000000     0.822800000000     0.0441096  
H442     H      0.529630000000     0.655610000000     0.796390000000     0.0462763  
H443     H      0.551960000000     0.695210000000     0.845680000000     0.0464344  
H444     H      0.961190000000     0.655270000000     0.883780000000     0.0450202  
H445     H      0.965590000000     0.713680000000     0.913480000000     0.0432575  
H446     H      0.051190000000     0.717990000000     0.902870000000     0.0491071  
H447     H      0.981880000000     0.608530000000     0.852430000000     0.0526702  
H448     H      0.051520000000     0.636300000000     0.824470000000     0.0493297  
H449     H      0.528220000000     0.743840000000     0.886120000000     0.0464219  
H450     H      0.983550000000     0.684820000000     0.931680000000     0.0531297  
H451     H      0.476840000000     0.912170000000     0.833010000000     0.0480161  
H452     H      0.483640000000     0.967040000000     0.886910000000     0.0464766  
H453     H      0.513650000000     0.936790000000     0.933820000000     0.0452687  
H454     H      0.008220000000     0.860760000000     0.858830000000     0.0454204  
H455     H      0.004470000000     0.826180000000     0.911990000000     0.0447933  
H456     H      0.041710000000     0.887610000000     0.961440000000     0.0471884  
H457     H      0.013260000000     0.914220000000     0.824790000000     0.045051   
H458     H      0.521190000000     0.969990000000     0.880370000000     0.0489892  
H459     H      0.505200000000     0.882710000000     0.966850000000     0.0484917  
H460     H      0.041810000000     0.832690000000     0.906930000000     0.0489716  
H461     H      0.989140000000     0.894780000000     0.732350000000     0.0467621  
H462     H      0.553590000000     0.923480000000     0.703070000000     0.045017   
H463     H      0.559450000000     0.892690000000     0.647090000000     0.045203   
H464     H      0.967330000000     0.854120000000     0.683830000000     0.0448867  
H465     H      0.991400000000     0.803580000000     0.646920000000     0.0456117  
H466     H      0.540920000000     0.859480000000     0.600980000000     0.0522993  
H467     H      0.967960000000     0.913010000000     0.706020000000     0.0472519  
H468     H      0.535090000000     0.941930000000     0.674940000000     0.0509476  
H469     H      0.556700000000     0.831750000000     0.622610000000     0.0455952  
H470     H      0.470660000000     0.830600000000     0.626080000000     0.0481097  
H471     H      0.039890000000     0.668110000000     0.583780000000     0.0493304  
H472     H      0.464150000000     0.676730000000     0.598240000000     0.0439465  
H473     H      0.459310000000     0.648590000000     0.653160000000     0.0460969  
H474     H      0.064650000000     0.651630000000     0.642270000000     0.0458945  
H475     H      0.059120000000     0.603210000000     0.680140000000     0.0447484  
H476     H      0.477710000000     0.620110000000     0.705820000000     0.0413587  
H477     H      0.047640000000     0.699290000000     0.605220000000     0.0432944  
H478     H      0.472550000000     0.706150000000     0.621770000000     0.0503536  
H479     H      0.481530000000     0.592440000000     0.679260000000     0.0508584  
H480     H      0.053010000000     0.632030000000     0.705070000000     0.0491894  
H481     H      0.885770000000     0.465900000000     0.480300000000     0.0462823  
H482     H      0.833160000000     0.410410000000     0.473300000000     0.0481759  
H483     H      0.859410000000     0.359080000000     0.005160000000     0.0454806  
H484     H      0.933530000000     0.436190000000     0.510060000000     0.0456016  
H485     H      0.967230000000     0.382120000000     0.501630000000     0.0481625  
H486     H      0.907300000000     0.331920000000     0.038900000000     0.0490764  
H487     H      0.879840000000     0.468210000000     0.017850000000     0.0477331  
H488     H      0.824820000000     0.411410000000     0.010610000000     0.0453923  
H489     H      0.912850000000     0.325390000000     0.501860000000     0.044745   
H490     H      0.961610000000     0.387400000000     0.038650000000     0.04712    
H491     H      0.796250000000     0.152510000000     0.029590000000     0.0448499  
H492     H      0.824230000000     0.125390000000     0.466520000000     0.0440073  
H493     H      0.885350000000     0.148670000000     0.464500000000     0.0446099  
H494     H      0.845880000000     0.190670000000     0.053740000000     0.0452651  
H495     H      0.888270000000     0.237640000000     0.031090000000     0.0463535  
H496     H      0.933720000000     0.177060000000     0.489140000000     0.0508338  
H497     H      0.820370000000     0.133420000000     0.052620000000     0.0479829  
H498     H      0.850840000000     0.103680000000     0.483730000000     0.0532019  
H499     H      0.916840000000     0.205250000000     0.469020000000     0.0439128  
H500     H      0.904070000000     0.211540000000     0.054600000000     0.0481833  
H501     H      0.711470000000     0.405070000000     0.472830000000     0.0485116  
H502     H      0.686740000000     0.429100000000     0.546100000000     0.0527884  
H503     H      0.655970000000     0.381700000000     0.565650000000     0.0453259  
H504     H      0.686370000000     0.348310000000     0.469510000000     0.0460541  
H505     H      0.628450000000     0.327420000000     0.472740000000     0.0480143  
H506     H      0.624850000000     0.324480000000     0.059270000000     0.045183   
H507     H      0.738090000000     0.385040000000     0.492020000000     0.0457714  
H508     H      0.715780000000     0.407350000000     0.059140000000     0.0449348  
H509     H      0.606070000000     0.355250000000     0.544430000000     0.0513501  
H510     H      0.646470000000     0.298740000000     0.992010000000     0.0460586  
H511     H      0.659090000000     0.069780000000     0.489960000000     0.0471721  
H512     H      0.712570000000     0.125400000000     0.497480000000     0.0446075  
H513     H      0.677240000000     0.178720000000     0.004430000000     0.0458033  
H514     H      0.603770000000     0.101380000000     0.500370000000     0.0458337  
H515     H      0.573200000000     0.151750000000     0.475680000000     0.046414   
H516     H      0.624720000000     0.211650000000     0.011380000000     0.0452885  
H517     H      0.650610000000     0.071950000000     0.027970000000     0.0481873  
H518     H      0.703990000000     0.128780000000     0.035110000000     0.0497134  
H519     H      0.626240000000     0.207180000000     0.474410000000     0.0482837  
H520     H      0.570480000000     0.153570000000     0.012950000000     0.0494289  
H521     H      0.817260000000     0.486010000000     0.399140000000     0.0493622  
H522     H      0.848340000000     0.555070000000     0.429450000000     0.0526402  
H523     H      0.879590000000     0.577290000000     0.383490000000     0.0444755  
H524     H      0.840700000000     0.486360000000     0.342510000000     0.0461985  
H525     H      0.897950000000     0.486830000000     0.320650000000     0.0493701  
H526     H      0.908480000000     0.073680000000     0.325060000000     0.0438138  
H527     H      0.791890000000     0.009470000000     0.382190000000     0.0454703  
H528     H      0.820170000000     0.072750000000     0.410370000000     0.0435667  
H529     H      0.926850000000     0.555270000000     0.353390000000     0.0518353  
H530     H      0.881290000000     0.010280000000     0.294970000000     0.0459019  
H531     H      0.619420000000     0.513750000000     0.324370000000     0.046992   
H532     H      0.565670000000     0.506050000000     0.380320000000     0.0474581  
H533     H      0.599680000000     0.513450000000     0.434100000000     0.0450887  
H534     H      0.672860000000     0.519320000000     0.357340000000     0.0460461  
H535     H      0.702290000000     0.485860000000     0.405100000000     0.0486831  
H536     H      0.653240000000     0.023370000000     0.465740000000     0.0485997  
H537     H      0.622660000000     0.050670000000     0.333060000000     0.0487155  
H538     H      0.568980000000     0.043390000000     0.388020000000     0.0460977  
H539     H      0.649880000000     0.484990000000     0.460740000000     0.0467835  
H540     H      0.707770000000     0.024030000000     0.409010000000     0.045204   
H541     H      0.671860000000     0.998230000000     0.094900000000     0.0509841  
H542     H      0.704560000000     0.065940000000     0.123750000000     0.0475907  
H543     H      0.680130000000     0.067540000000     0.181920000000     0.0455689  
H544     H      0.637420000000     0.978720000000     0.139930000000     0.0454079  
H545     H      0.590230000000     0.004550000000     0.170000000000     0.0503002  
H546     H      0.639390000000     0.544360000000     0.229160000000     0.047107   
H547     H      0.697400000000     0.479010000000     0.116230000000     0.0462565  
H548     H      0.728200000000     0.542920000000     0.143500000000     0.0455466  
H549     H      0.621990000000     0.068630000000     0.204850000000     0.0468968  
H550     H      0.607950000000     0.482410000000     0.196050000000     0.045329   
H551     H      0.824340000000     0.050610000000     0.125560000000     0.0484839  
H552     H      0.880700000000     0.047940000000     0.072730000000     0.0462588  
H553     H      0.928200000000     0.522160000000     0.104230000000     0.046326   
H554     H      0.850510000000     0.019800000000     0.176570000000     0.0458065  
H555     H      0.902080000000     0.028450000000     0.212560000000     0.0448298  
H556     H      0.957070000000     0.496540000000     0.153450000000     0.0479948  
H557     H      0.818800000000     0.012380000000     0.122240000000     0.0464401  
H558     H      0.876180000000     0.509310000000     0.069720000000     0.0487348  
H559     H      0.957780000000     0.035330000000     0.158640000000     0.0510028  
H560     H      0.901050000000     0.489840000000     0.205980000000     0.0485198  
H561     H      0.966160000000     0.128710000000     0.323900000000     0.0444944  
H562     H      0.030810000000     0.154590000000     0.297520000000     0.046336   
H563     H      0.052480000000     0.194780000000     0.346440000000     0.0458903  
H564     H      0.461010000000     0.155670000000     0.383130000000     0.0445219  
H565     H      0.465760000000     0.213670000000     0.413420000000     0.0429227  
H566     H      0.551420000000     0.217550000000     0.402880000000     0.0491929  
H567     H      0.481230000000     0.109180000000     0.351330000000     0.0525321  
H568     H      0.551440000000     0.137150000000     0.322680000000     0.0492479  
H569     H      0.028320000000     0.243730000000     0.386340000000     0.0459043  
H570     H      0.483700000000     0.184640000000     0.431370000000     0.0523785  
H571     H      0.976130000000     0.411850000000     0.333240000000     0.0475441  
H572     H      0.982540000000     0.466730000000     0.387180000000     0.0481299  
H573     H      0.012440000000     0.436660000000     0.434220000000     0.0450203  
H574     H      0.508730000000     0.361020000000     0.358590000000     0.0459758  
H575     H      0.504850000000     0.326380000000     0.411770000000     0.0449884  
H576     H      0.542380000000     0.387520000000     0.461370000000     0.0469941  
H577     H      0.514570000000     0.414430000000     0.324960000000     0.0468339  
H578     H      0.020090000000     0.469870000000     0.380710000000     0.0495462  
H579     H      0.003590000000     0.382590000000     0.466910000000     0.0474145  
H580     H      0.542200000000     0.332750000000     0.406620000000     0.0489797  
H581     H      0.489200000000     0.395420000000     0.231900000000     0.0472109  
H582     H      0.053990000000     0.422390000000     0.203850000000     0.0451369  
H583     H      0.059980000000     0.391700000000     0.147880000000     0.0456243  
H584     H      0.467300000000     0.354730000000     0.183490000000     0.0461329  
H585     H      0.491140000000     0.304470000000     0.146100000000     0.0460882  
H586     H      0.041690000000     0.358330000000     0.101680000000     0.0524592  
H587     H      0.467830000000     0.413500000000     0.205150000000     0.047804   
H588     H      0.035680000000     0.441100000000     0.175760000000     0.0511749  
H589     H      0.057190000000     0.330680000000     0.123620000000     0.0455682  
H590     H      0.971010000000     0.329130000000     0.126410000000     0.0476607  
H591     H      0.539980000000     0.168020000000     0.083720000000     0.0495138  
H592     H      0.964330000000     0.176390000000     0.098380000000     0.0438642  
H593     H      0.959390000000     0.148050000000     0.153050000000     0.0454892  
H594     H      0.564980000000     0.151770000000     0.142140000000     0.0462647  
H595     H      0.559320000000     0.103670000000     0.180500000000     0.0450017  
H596     H      0.977560000000     0.119120000000     0.205450000000     0.0410684  
H597     H      0.548070000000     0.199340000000     0.105420000000     0.0435316  
H598     H      0.972570000000     0.205900000000     0.121850000000     0.0504402  
H599     H      0.982040000000     0.091830000000     0.178150000000     0.0503949  
H600     H      0.553450000000     0.132840000000     0.205080000000     0.0493463  
H601     H      0.885670000000     0.465690000000     0.980070000000     0.0458651  
H602     H      0.833070000000     0.410170000000     0.973220000000     0.0477176  
H603     H      0.859380000000     0.359310000000     0.505300000000     0.0460372  
H604     H      0.933520000000     0.436010000000     0.009690000000     0.0450255  
H605     H      0.967240000000     0.381940000000     0.001190000000     0.047494   
H606     H      0.907170000000     0.332100000000     0.539160000000     0.04911    
H607     H      0.879840000000     0.468420000000     0.518070000000     0.0496603  
H608     H      0.824820000000     0.411640000000     0.510670000000     0.0474307  
H609     H      0.912920000000     0.325200000000     0.001600000000     0.0443608  
H610     H      0.961490000000     0.387520000000     0.539080000000     0.0472735  
H611     H      0.796000000000     0.152950000000     0.529480000000     0.04523    
H612     H      0.824790000000     0.124630000000     0.966740000000     0.0443538  
H613     H      0.885660000000     0.148400000000     0.964700000000     0.0450289  
H614     H      0.845690000000     0.190780000000     0.553700000000     0.0457425  
H615     H      0.887850000000     0.237810000000     0.531060000000     0.0467105  
H616     H      0.933680000000     0.176260000000     0.989820000000     0.0510707  
H617     H      0.819970000000     0.133500000000     0.552370000000     0.0482646  
H618     H      0.851870000000     0.103590000000     0.984700000000     0.0531847  
H619     H      0.917260000000     0.204830000000     0.969210000000     0.0442591  
H620     H      0.903960000000     0.211780000000     0.554440000000     0.0485262  
H621     H      0.711550000000     0.404840000000     0.972900000000     0.0478572  
H622     H      0.686750000000     0.428920000000     0.046130000000     0.052833   
H623     H      0.656090000000     0.381470000000     0.065750000000     0.0457868  
H624     H      0.686560000000     0.348050000000     0.969640000000     0.0445575  
H625     H      0.628700000000     0.327110000000     0.972850000000     0.0473681  
H626     H      0.624650000000     0.324790000000     0.559160000000     0.0450832  
H627     H      0.738220000000     0.384910000000     0.992120000000     0.0454028  
H628     H      0.715710000000     0.407430000000     0.559070000000     0.0448078  
H629     H      0.606260000000     0.354950000000     0.044560000000     0.0514426  
H630     H      0.646250000000     0.299030000000     0.491850000000     0.0465226  
H631     H      0.658880000000     0.069740000000     0.990290000000     0.0489777  
H632     H      0.712270000000     0.125250000000     0.997540000000     0.0465418  
H633     H      0.677230000000     0.178930000000     0.504730000000     0.0458278  
H634     H      0.603710000000     0.101210000000     0.000310000000     0.045789   
H635     H      0.573330000000     0.151430000000     0.974810000000     0.0462698  
H636     H      0.624850000000     0.211270000000     0.512810000000     0.0467106  
H637     H      0.650860000000     0.071640000000     0.527320000000     0.0479565  
H638     H      0.704440000000     0.128750000000     0.534760000000     0.049401   
H639     H      0.626430000000     0.206760000000     0.973410000000     0.0480658  
H640     H      0.571030000000     0.153520000000     0.514230000000     0.050689   
H641     H      0.817200000000     0.485920000000     0.899100000000     0.0494383  
H642     H      0.848270000000     0.554960000000     0.929470000000     0.0528102  
H643     H      0.879540000000     0.577210000000     0.883550000000     0.0445017  
H644     H      0.840660000000     0.486320000000     0.842480000000     0.0462292  
H645     H      0.897920000000     0.486800000000     0.820630000000     0.0493873  
H646     H      0.908450000000     0.073650000000     0.825120000000     0.0438235  
H647     H      0.791840000000     0.009400000000     0.882160000000     0.0455018  
H648     H      0.820110000000     0.072650000000     0.910400000000     0.043644   
H649     H      0.926810000000     0.555210000000     0.853450000000     0.0518273  
H650     H      0.881270000000     0.010280000000     0.794970000000     0.0459112  
H651     H      0.619390000000     0.513810000000     0.824350000000     0.047004   
H652     H      0.565650000000     0.506160000000     0.880320000000     0.0475214  
H653     H      0.599660000000     0.513560000000     0.934080000000     0.0453224  
H654     H      0.672840000000     0.519350000000     0.857310000000     0.0460487  
H655     H      0.702250000000     0.485860000000     0.905060000000     0.0486958  
H656     H      0.653250000000     0.023440000000     0.965710000000     0.0489517  
H657     H      0.622640000000     0.050740000000     0.833030000000     0.0487339  
H658     H      0.568970000000     0.043500000000     0.887990000000     0.0462137  
H659     H      0.649830000000     0.485060000000     0.960720000000     0.0471536  
H660     H      0.707770000000     0.024020000000     0.908990000000     0.0452752  
H661     H      0.671860000000     0.998350000000     0.594880000000     0.0510422  
H662     H      0.704510000000     0.066080000000     0.623740000000     0.0475825  
H663     H      0.680080000000     0.067660000000     0.681910000000     0.0456009  
H664     H      0.637430000000     0.978820000000     0.639930000000     0.0454878  
H665     H      0.590230000000     0.004600000000     0.670000000000     0.0503048  
H666     H      0.639360000000     0.544460000000     0.729150000000     0.0470933  
H667     H      0.697400000000     0.479140000000     0.616220000000     0.0462759  
H668     H      0.728170000000     0.543070000000     0.643500000000     0.0455413  
H669     H      0.621940000000     0.068710000000     0.704840000000     0.0469271  
H670     H      0.607970000000     0.482480000000     0.696050000000     0.0453793  
H671     H      0.824360000000     0.050830000000     0.625590000000     0.0484365  
H672     H      0.880720000000     0.048240000000     0.572770000000     0.046427   
H673     H      0.928210000000     0.522340000000     0.604220000000     0.0464372  
H674     H      0.850520000000     0.019930000000     0.676560000000     0.0457902  
H675     H      0.902090000000     0.028490000000     0.712560000000     0.0448154  
H676     H      0.957040000000     0.496600000000     0.653410000000     0.0480818  
H677     H      0.818810000000     0.012610000000     0.622210000000     0.0464898  
H678     H      0.876210000000     0.509610000000     0.569680000000     0.0488777  
H679     H      0.957810000000     0.035370000000     0.658650000000     0.051029   
H680     H      0.901020000000     0.489890000000     0.705930000000     0.0484685  
H681     H      0.966030000000     0.128660000000     0.823940000000     0.0445234  
H682     H      0.030570000000     0.154640000000     0.797420000000     0.046276   
H683     H      0.052260000000     0.194900000000     0.846290000000     0.0459105  
H684     H      0.460960000000     0.155600000000     0.883200000000     0.0445656  
H685     H      0.465680000000     0.213600000000     0.913490000000     0.0430129  
H686     H      0.551300000000     0.217680000000     0.902700000000     0.0493025  
H687     H      0.481180000000     0.109160000000     0.851340000000     0.0525859  
H688     H      0.551290000000     0.137250000000     0.822550000000     0.0493012  
H689     H      0.028080000000     0.243800000000     0.886240000000     0.0459401  
H690     H      0.483730000000     0.184590000000     0.931380000000     0.0526     
H691     H      0.976130000000     0.411860000000     0.833270000000     0.0475734  
H692     H      0.982640000000     0.466730000000     0.887190000000     0.0483024  
H693     H      0.012690000000     0.436670000000     0.934160000000     0.0452833  
H694     H      0.508790000000     0.361030000000     0.858540000000     0.0459764  
H695     H      0.505030000000     0.326390000000     0.911720000000     0.0450916  
H696     H      0.542710000000     0.387520000000     0.961220000000     0.0472577  
H697     H      0.514540000000     0.414440000000     0.824900000000     0.0468323  
H698     H      0.020170000000     0.469890000000     0.880640000000     0.0496659  
H699     H      0.003940000000     0.382630000000     0.966880000000     0.0479814  
H700     H      0.542370000000     0.332760000000     0.906500000000     0.0489746  
H701     H      0.489150000000     0.395430000000     0.732000000000     0.0472437  
H702     H      0.053980000000     0.422340000000     0.703950000000     0.0451246  
H703     H      0.059980000000     0.391560000000     0.648020000000     0.0456623  
H704     H      0.467260000000     0.354700000000     0.683610000000     0.0461418  
H705     H      0.491080000000     0.304390000000     0.646270000000     0.0460799  
H706     H      0.041720000000     0.358170000000     0.601850000000     0.0525822  
H707     H      0.467810000000     0.413480000000     0.705210000000     0.0478359  
H708     H      0.035690000000     0.441020000000     0.675820000000     0.0511701  
H709     H      0.057150000000     0.330510000000     0.623810000000     0.0456195  
H710     H      0.970980000000     0.329060000000     0.626570000000     0.0477057  
H711     H      0.539700000000     0.167960000000     0.583640000000     0.0496738  
H712     H      0.964050000000     0.176310000000     0.598390000000     0.0440903  
H713     H      0.959190000000     0.147980000000     0.653070000000     0.0464815  
H714     H      0.564760000000     0.151750000000     0.642050000000     0.0463241  
H715     H      0.559180000000     0.103660000000     0.680430000000     0.0450021  
H716     H      0.977420000000     0.119080000000     0.705460000000     0.0416387  
H717     H      0.547800000000     0.199290000000     0.605340000000     0.0436135  
H718     H      0.972300000000     0.205830000000     0.621840000000     0.0506044  
H719     H      0.981900000000     0.091780000000     0.678160000000     0.0509987  
H720     H      0.553300000000     0.132850000000     0.705010000000     0.0493395  
H721     H      0.885780000000     0.965920000000     0.480330000000     0.0461981  
H722     H      0.833170000000     0.910430000000     0.473310000000     0.0481722  
H723     H      0.859420000000     0.859090000000     0.005150000000     0.0454942  
H724     H      0.933540000000     0.936190000000     0.510070000000     0.0455505  
H725     H      0.967240000000     0.882120000000     0.501620000000     0.0481281  
H726     H      0.907310000000     0.831900000000     0.038870000000     0.0490289  
H727     H      0.879850000000     0.968210000000     0.017880000000     0.0476347  
H728     H      0.824830000000     0.911420000000     0.010620000000     0.045358   
H729     H      0.912850000000     0.825400000000     0.501830000000     0.0447574  
H730     H      0.961620000000     0.887390000000     0.038650000000     0.0470943  
H731     H      0.796260000000     0.652490000000     0.029600000000     0.0447917  
H732     H      0.824220000000     0.625350000000     0.466520000000     0.0439689  
H733     H      0.885340000000     0.648640000000     0.464480000000     0.0445746  
H734     H      0.845900000000     0.690650000000     0.053740000000     0.0452276  
H735     H      0.888280000000     0.737620000000     0.031060000000     0.0463769  
H736     H      0.933720000000     0.677030000000     0.489110000000     0.050805   
H737     H      0.820390000000     0.633400000000     0.052630000000     0.0479325  
H738     H      0.850840000000     0.603650000000     0.483730000000     0.0531262  
H739     H      0.916830000000     0.705220000000     0.468980000000     0.0438896  
H740     H      0.904090000000     0.711520000000     0.054570000000     0.0482338  
H741     H      0.711460000000     0.905100000000     0.472780000000     0.0484864  
H742     H      0.686720000000     0.929120000000     0.546030000000     0.0527166  
H743     H      0.655950000000     0.881710000000     0.565590000000     0.0452906  
H744     H      0.686370000000     0.848330000000     0.469440000000     0.0460085  
H745     H      0.628450000000     0.827420000000     0.472670000000     0.0479983  
H746     H      0.624850000000     0.824480000000     0.059200000000     0.0451937  
H747     H      0.738080000000     0.885070000000     0.491960000000     0.0457726  
H748     H      0.715750000000     0.907370000000     0.059090000000     0.0448839  
H749     H      0.606060000000     0.855240000000     0.544360000000     0.0513475  
H750     H      0.646480000000     0.798750000000     0.991940000000     0.0460579  
H751     H      0.659110000000     0.569770000000     0.489930000000     0.0471186  
H752     H      0.712570000000     0.625380000000     0.497480000000     0.0445977  
H753     H      0.677240000000     0.678710000000     0.004410000000     0.0457971  
H754     H      0.603770000000     0.601370000000     0.500320000000     0.0457989  
H755     H      0.573210000000     0.651730000000     0.475620000000     0.0464002  
H756     H      0.624720000000     0.711630000000     0.011340000000     0.045246   
H757     H      0.650600000000     0.571940000000     0.027940000000     0.0481256  
H758     H      0.703980000000     0.628770000000     0.035100000000     0.0496911  
H759     H      0.626250000000     0.707170000000     0.474370000000     0.0483006  
H760     H      0.570470000000     0.653550000000     0.012890000000     0.0494048  
H761     H      0.817290000000     0.986020000000     0.399120000000     0.0487743  
H762     H      0.848390000000     0.055070000000     0.429430000000     0.0526822  
H763     H      0.879610000000     0.077300000000     0.383460000000     0.0445444  
H764     H      0.840700000000     0.986390000000     0.342480000000     0.0455203  
H765     H      0.897930000000     0.986860000000     0.320580000000     0.0487601  
H766     H      0.908500000000     0.573640000000     0.325110000000     0.0438426  
H767     H      0.791870000000     0.509450000000     0.382190000000     0.0455311  
H768     H      0.820130000000     0.572740000000     0.410370000000     0.0435551  
H769     H      0.926850000000     0.055300000000     0.353330000000     0.0518809  
H770     H      0.881320000000     0.510240000000     0.295020000000     0.0459976  
H771     H      0.619510000000     0.012620000000     0.324620000000     0.0470109  
H772     H      0.566090000000     0.005150000000     0.380290000000     0.0474567  
H773     H      0.599700000000     0.013290000000     0.434010000000     0.0451268  
H774     H      0.672870000000     0.018930000000     0.357230000000     0.0460883  
H775     H      0.702370000000     0.985810000000     0.405110000000     0.0480741  
H776     H      0.653200000000     0.523250000000     0.465860000000     0.0487496  
H777     H      0.622620000000     0.551350000000     0.333200000000     0.0486198  
H778     H      0.568850000000     0.543890000000     0.388160000000     0.0460255  
H779     H      0.649930000000     0.985090000000     0.460780000000     0.0462483  
H780     H      0.707760000000     0.524050000000     0.409110000000     0.0453746  
H781     H      0.671860000000     0.498210000000     0.094930000000     0.0516205  
H782     H      0.704540000000     0.565930000000     0.123760000000     0.0476333  
H783     H      0.680120000000     0.567530000000     0.181930000000     0.0456554  
H784     H      0.637440000000     0.478690000000     0.139970000000     0.0452282  
H785     H      0.590240000000     0.504500000000     0.170040000000     0.0501904  
H786     H      0.639390000000     0.044370000000     0.229130000000     0.0471243  
H787     H      0.697390000000     0.979020000000     0.116200000000     0.0456746  
H788     H      0.728210000000     0.042920000000     0.143490000000     0.0455373  
H789     H      0.621980000000     0.568610000000     0.204870000000     0.0469787  
H790     H      0.607930000000     0.982440000000     0.195990000000     0.0449025  
H791     H      0.824420000000     0.550560000000     0.125590000000     0.0484581  
H792     H      0.880750000000     0.547720000000     0.072750000000     0.0462182  
H793     H      0.928230000000     0.022520000000     0.104250000000     0.046397   
H794     H      0.850500000000     0.519680000000     0.176590000000     0.0456818  
H795     H      0.901780000000     0.528050000000     0.212570000000     0.0445643  
H796     H      0.957070000000     0.996900000000     0.153400000000     0.0474619  
H797     H      0.818720000000     0.512360000000     0.122240000000     0.0463817  
H798     H      0.876270000000     0.009510000000     0.069750000000     0.0488705  
H799     H      0.957760000000     0.534990000000     0.158540000000     0.0510956  
H800     H      0.901190000000     0.989960000000     0.205850000000     0.0482934  
H801     H      0.966070000000     0.628760000000     0.323830000000     0.0444838  
H802     H      0.030680000000     0.654660000000     0.297410000000     0.0462974  
H803     H      0.052380000000     0.694850000000     0.346340000000     0.0459037  
H804     H      0.460940000000     0.655710000000     0.383080000000     0.0444653  
H805     H      0.465720000000     0.713700000000     0.413380000000     0.0429648  
H806     H      0.551360000000     0.717590000000     0.402780000000     0.049199   
H807     H      0.481150000000     0.609240000000     0.351260000000     0.0525282  
H808     H      0.551330000000     0.637230000000     0.322550000000     0.0493439  
H809     H      0.028260000000     0.743770000000     0.386280000000     0.0459295  
H810     H      0.483670000000     0.684660000000     0.431300000000     0.0524125  
H811     H      0.976060000000     0.911810000000     0.333180000000     0.0475227  
H812     H      0.982400000000     0.966670000000     0.387130000000     0.0480397  
H813     H      0.012330000000     0.936630000000     0.434170000000     0.0449413  
H814     H      0.508700000000     0.861000000000     0.358520000000     0.0459672  
H815     H      0.504850000000     0.826340000000     0.411700000000     0.0450053  
H816     H      0.542320000000     0.887510000000     0.461300000000     0.0469469  
H817     H      0.514490000000     0.914410000000     0.324910000000     0.0467623  
H818     H      0.019940000000     0.969850000000     0.380690000000     0.0494655  
H819     H      0.003540000000     0.882540000000     0.466850000000     0.0474023  
H820     H      0.542190000000     0.832750000000     0.406550000000     0.0489674  
H821     H      0.489160000000     0.895460000000     0.231800000000     0.0472109  
H822     H      0.053950000000     0.922450000000     0.203740000000     0.0450911  
H823     H      0.059950000000     0.891730000000     0.147790000000     0.0455903  
H824     H      0.467280000000     0.854750000000     0.183410000000     0.0461269  
H825     H      0.491150000000     0.804490000000     0.146040000000     0.0460769  
H826     H      0.041680000000     0.858340000000     0.101610000000     0.052446   
H827     H      0.467790000000     0.913540000000     0.205050000000     0.0477584  
H828     H      0.035630000000     0.941150000000     0.175650000000     0.0510503  
H829     H      0.057180000000     0.830710000000     0.123560000000     0.0455805  
H830     H      0.971010000000     0.829130000000     0.126340000000     0.0476419  
H831     H      0.540000000000     0.668010000000     0.083650000000     0.0495083  
H832     H      0.964330000000     0.676350000000     0.098290000000     0.0439017  
H833     H      0.959380000000     0.647980000000     0.152930000000     0.0455387  
H834     H      0.564970000000     0.651740000000     0.142070000000     0.046271   
H835     H      0.559320000000     0.603620000000     0.180410000000     0.0449887  
H836     H      0.977530000000     0.619040000000     0.205330000000     0.041052   
H837     H      0.548060000000     0.699320000000     0.105370000000     0.0435531  
H838     H      0.972550000000     0.705840000000     0.121780000000     0.0504597  
H839     H      0.982040000000     0.591750000000     0.178030000000     0.0503811  
H840     H      0.553420000000     0.632780000000     0.205000000000     0.0493731  
H841     H      0.885690000000     0.965700000000     0.980100000000     0.0458049  
H842     H      0.833080000000     0.910180000000     0.973230000000     0.0477007  
H843     H      0.859390000000     0.859310000000     0.505280000000     0.0460071  
H844     H      0.933530000000     0.936020000000     0.009710000000     0.0449579  
H845     H      0.967240000000     0.881940000000     0.001180000000     0.0475128  
H846     H      0.907180000000     0.832100000000     0.539130000000     0.049125   
H847     H      0.879850000000     0.968420000000     0.518090000000     0.0495394  
H848     H      0.824830000000     0.911650000000     0.510680000000     0.0473968  
H849     H      0.912930000000     0.825200000000     0.001570000000     0.0443181  
H850     H      0.961500000000     0.887510000000     0.539080000000     0.0472221  
H851     H      0.796010000000     0.652930000000     0.529490000000     0.045239   
H852     H      0.824790000000     0.624600000000     0.966750000000     0.0443748  
H853     H      0.885650000000     0.648360000000     0.964690000000     0.0450502  
H854     H      0.845710000000     0.690760000000     0.553690000000     0.0457578  
H855     H      0.887860000000     0.737790000000     0.531030000000     0.0467593  
H856     H      0.933680000000     0.676240000000     0.989790000000     0.0510986  
H857     H      0.819980000000     0.633480000000     0.552380000000     0.0482736  
H858     H      0.851860000000     0.603560000000     0.984710000000     0.0531961  
H859     H      0.917260000000     0.704800000000     0.969180000000     0.0442722  
H860     H      0.903980000000     0.711770000000     0.554410000000     0.0485765  
H861     H      0.711540000000     0.904870000000     0.972850000000     0.0478177  
H862     H      0.686730000000     0.928940000000     0.046060000000     0.0527624  
H863     H      0.656070000000     0.881480000000     0.065690000000     0.0457523  
H864     H      0.686560000000     0.848070000000     0.969580000000     0.0445499  
H865     H      0.628700000000     0.827120000000     0.972780000000     0.0473592  
H866     H      0.624660000000     0.824790000000     0.559100000000     0.0450873  
H867     H      0.738210000000     0.884940000000     0.992070000000     0.0454088  
H868     H      0.715680000000     0.907460000000     0.559020000000     0.0447515  
H869     H      0.606250000000     0.854950000000     0.044500000000     0.051427   
H870     H      0.646260000000     0.799040000000     0.491780000000     0.0465291  
H871     H      0.658900000000     0.569720000000     0.990270000000     0.0489681  
H872     H      0.712280000000     0.625230000000     0.997530000000     0.0465282  
H873     H      0.677240000000     0.678920000000     0.504710000000     0.0457755  
H874     H      0.603720000000     0.601200000000     0.000260000000     0.0457603  
H875     H      0.573340000000     0.651410000000     0.974750000000     0.0462583  
H876     H      0.624850000000     0.711250000000     0.512770000000     0.0467217  
H877     H      0.650850000000     0.571620000000     0.527290000000     0.0478579  
H878     H      0.704430000000     0.628740000000     0.534750000000     0.0493797  
H879     H      0.626450000000     0.706750000000     0.973380000000     0.0480308  
H880     H      0.571030000000     0.653500000000     0.514170000000     0.0506758  
H881     H      0.817220000000     0.985930000000     0.899070000000     0.0488344  
H882     H      0.848320000000     0.054950000000     0.929460000000     0.0528725  
H883     H      0.879560000000     0.077220000000     0.883520000000     0.0446237  
H884     H      0.840660000000     0.986350000000     0.842440000000     0.0455352  
H885     H      0.897900000000     0.986840000000     0.820570000000     0.0488041  
H886     H      0.908470000000     0.573620000000     0.825180000000     0.0437977  
H887     H      0.791820000000     0.509380000000     0.882160000000     0.0455552  
H888     H      0.820070000000     0.572640000000     0.910390000000     0.0436198  
H889     H      0.926810000000     0.055240000000     0.853380000000     0.0519439  
H890     H      0.881290000000     0.510240000000     0.795020000000     0.045972   
H891     H      0.619480000000     0.012680000000     0.824600000000     0.0470105  
H892     H      0.566060000000     0.005250000000     0.880280000000     0.0475239  
H893     H      0.599690000000     0.013390000000     0.933990000000     0.0453878  
H894     H      0.672850000000     0.018960000000     0.857200000000     0.0460904  
H895     H      0.702320000000     0.985820000000     0.905070000000     0.0481257  
H896     H      0.653210000000     0.523310000000     0.965830000000     0.0491065  
H897     H      0.622600000000     0.551420000000     0.833170000000     0.0486335  
H898     H      0.568840000000     0.544000000000     0.888140000000     0.0461036  
H899     H      0.649880000000     0.985160000000     0.960760000000     0.0465987  
H900     H      0.707760000000     0.524050000000     0.909080000000     0.0453943  
H901     H      0.671860000000     0.498330000000     0.594920000000     0.0516897  
H902     H      0.704500000000     0.566070000000     0.623760000000     0.0476321  
H903     H      0.680070000000     0.567660000000     0.681920000000     0.0456423  
H904     H      0.637450000000     0.478790000000     0.639970000000     0.0453195  
H905     H      0.590240000000     0.504550000000     0.670040000000     0.0502585  
H906     H      0.639360000000     0.044470000000     0.729130000000     0.0471279  
H907     H      0.697390000000     0.979150000000     0.616190000000     0.0456866  
H908     H      0.728180000000     0.043070000000     0.643480000000     0.0455482  
H909     H      0.621920000000     0.568690000000     0.704860000000     0.0469911  
H910     H      0.607950000000     0.982500000000     0.696000000000     0.0448743  
H911     H      0.824450000000     0.550780000000     0.625620000000     0.048388   
H912     H      0.880770000000     0.548020000000     0.572790000000     0.0463677  
H913     H      0.928240000000     0.022700000000     0.604240000000     0.0465051  
H914     H      0.850510000000     0.519820000000     0.676570000000     0.0456799  
H915     H      0.901800000000     0.528100000000     0.712570000000     0.0445378  
H916     H      0.957040000000     0.996950000000     0.653360000000     0.0474856  
H917     H      0.818730000000     0.512590000000     0.622220000000     0.0463947  
H918     H      0.876300000000     0.009810000000     0.569710000000     0.0490137  
H919     H      0.957790000000     0.535040000000     0.658550000000     0.0511522  
H920     H      0.901160000000     0.990010000000     0.705800000000     0.0482517  
H921     H      0.965930000000     0.628710000000     0.823870000000     0.0444694  
H922     H      0.030440000000     0.654710000000     0.797320000000     0.0463352  
H923     H      0.052160000000     0.694970000000     0.846190000000     0.0459344  
H924     H      0.460890000000     0.655640000000     0.883140000000     0.0445595  
H925     H      0.465640000000     0.713630000000     0.913460000000     0.0430356  
H926     H      0.551240000000     0.717710000000     0.902600000000     0.0493432  
H927     H      0.481090000000     0.609220000000     0.851270000000     0.0525808  
H928     H      0.551180000000     0.637340000000     0.822420000000     0.0493717  
H929     H      0.028010000000     0.743850000000     0.886180000000     0.0459004  
H930     H      0.483690000000     0.684610000000     0.931320000000     0.0526038  
H931     H      0.976050000000     0.911810000000     0.833210000000     0.047529   
H932     H      0.982490000000     0.966660000000     0.887140000000     0.0481804  
H933     H      0.012570000000     0.936640000000     0.934120000000     0.0451677  
H934     H      0.508760000000     0.861010000000     0.858470000000     0.0459447  
H935     H      0.505030000000     0.826350000000     0.911650000000     0.0451352  
H936     H      0.542650000000     0.887510000000     0.961150000000     0.0472289  
H937     H      0.514460000000     0.914430000000     0.824850000000     0.0467729  
H938     H      0.020030000000     0.969870000000     0.880620000000     0.0495493  
H939     H      0.003890000000     0.882580000000     0.966820000000     0.04797    
H940     H      0.542360000000     0.832760000000     0.906430000000     0.0489895  
H941     H      0.489110000000     0.895470000000     0.731890000000     0.0472183  
H942     H      0.053940000000     0.922400000000     0.703850000000     0.0450531  
H943     H      0.059960000000     0.891600000000     0.647930000000     0.0455968  
H944     H      0.467240000000     0.854730000000     0.683520000000     0.0461485  
H945     H      0.491090000000     0.804410000000     0.646210000000     0.0460625  
H946     H      0.041710000000     0.858180000000     0.601770000000     0.0525163  
H947     H      0.467770000000     0.913520000000     0.705100000000     0.0477553  
H948     H      0.035640000000     0.941060000000     0.675720000000     0.0510335  
H949     H      0.057150000000     0.830530000000     0.623750000000     0.0455579  
H950     H      0.970970000000     0.829060000000     0.626490000000     0.0476636  
H951     H      0.539710000000     0.667960000000     0.583570000000     0.0496946  
H952     H      0.964050000000     0.676270000000     0.598290000000     0.0441016  
H953     H      0.959170000000     0.647910000000     0.652950000000     0.0464572  
H954     H      0.564760000000     0.651730000000     0.641980000000     0.0462897  
H955     H      0.559170000000     0.603610000000     0.680340000000     0.0450036  
H956     H      0.977390000000     0.618990000000     0.705340000000     0.041676   
H957     H      0.547790000000     0.699270000000     0.605290000000     0.0436128  
H958     H      0.972290000000     0.705780000000     0.621770000000     0.0506201  
H959     H      0.981900000000     0.591700000000     0.678040000000     0.0510236  
H960     H      0.553280000000     0.632790000000     0.704920000000     0.0493555  
N1       N      0.446620000000     0.347440000000     0.021580000000    -0.163513   
N2       N      0.346500000000     0.448540000000     0.494290000000    -0.163903   
N3       N      0.422550000000     0.214050000000     0.013100000000    -0.162422   
N4       N      0.316640000000     0.116640000000     0.010530000000    -0.16215    
N5       N      0.114180000000     0.321100000000     0.515540000000    -0.1633     
N6       N      0.218970000000     0.418980000000     0.515640000000    -0.162985   
N7       N      0.089130000000     0.190410000000     0.494150000000    -0.163656   
N8       N      0.190580000000     0.089640000000     0.015770000000    -0.163104   
N9       N      0.415770000000     0.529370000000     0.317860000000    -0.161869   
N10      N      0.313460000000     0.528240000000     0.417330000000    -0.16164    
N11      N      0.187770000000     0.503340000000     0.444270000000    -0.16292    
N12      N      0.084570000000     0.030040000000     0.347480000000    -0.164337   
N13      N      0.103910000000     0.026260000000     0.207330000000    -0.163039   
N14      N      0.207810000000     0.022820000000     0.108420000000    -0.163174   
N15      N      0.438470000000     0.511820000000     0.192250000000    -0.16251    
N16      N      0.341160000000     0.031960000000     0.088010000000    -0.164182   
N17      N      0.009560000000     0.220950000000     0.420660000000    -0.162295   
N18      N      0.010000000000     0.119990000000     0.318410000000    -0.162681   
N19      N      0.024850000000     0.347910000000     0.446320000000    -0.162719   
N20      N      0.497390000000     0.450530000000     0.347110000000    -0.163259   
N21      N      0.513480000000     0.324690000000     0.112230000000    -0.163069   
N22      N      0.509720000000     0.430110000000     0.210630000000    -0.162673   
N23      N      0.019350000000     0.102150000000     0.201710000000    -0.162975   
N24      N      0.505040000000     0.195840000000     0.091950000000    -0.163082   
N25      N      0.446530000000     0.347600000000     0.521910000000    -0.16359    
N26      N      0.346440000000     0.448320000000     0.994160000000    -0.164462   
N27      N      0.422210000000     0.214500000000     0.512840000000    -0.161479   
N28      N      0.316050000000     0.117030000000     0.510150000000    -0.161346   
N29      N      0.114390000000     0.320820000000     0.015640000000    -0.164027   
N30      N      0.219000000000     0.418820000000     0.015690000000    -0.163695   
N31      N      0.089180000000     0.190230000000     0.992940000000    -0.163737   
N32      N      0.190720000000     0.089760000000     0.515370000000    -0.163386   
N33      N      0.415740000000     0.529350000000     0.817880000000    -0.161863   
N34      N      0.313400000000     0.528130000000     0.917330000000    -0.161565   
N35      N      0.187750000000     0.503340000000     0.944240000000    -0.162807   
N36      N      0.084550000000     0.030120000000     0.847460000000    -0.164352   
N37      N      0.103890000000     0.026330000000     0.707330000000    -0.162969   
N38      N      0.207790000000     0.022970000000     0.608420000000    -0.163106   
N39      N      0.438470000000     0.511850000000     0.692230000000    -0.162529   
N40      N      0.341180000000     0.032230000000     0.588010000000    -0.164099   
N41      N      0.009480000000     0.220970000000     0.920610000000    -0.162234   
N42      N      0.009870000000     0.120010000000     0.818370000000    -0.162709   
N43      N      0.025100000000     0.347920000000     0.946230000000    -0.162565   
N44      N      0.497410000000     0.450540000000     0.847090000000    -0.163335   
N45      N      0.513450000000     0.324580000000     0.612390000000    -0.163178   
N46      N      0.509710000000     0.430080000000     0.710690000000    -0.162593   
N47      N      0.019220000000     0.102130000000     0.701690000000    -0.16285    
N48      N      0.504760000000     0.195780000000     0.591910000000    -0.163068   
N49      N      0.446630000000     0.847430000000     0.021550000000    -0.163514   
N50      N      0.346510000000     0.948550000000     0.494310000000    -0.163917   
N51      N      0.422560000000     0.714030000000     0.013070000000    -0.162501   
N52      N      0.316650000000     0.616620000000     0.010540000000    -0.162103   
N53      N      0.114190000000     0.821100000000     0.515480000000    -0.163194   
N54      N      0.218960000000     0.919000000000     0.515590000000    -0.162965   
N55      N      0.089140000000     0.690400000000     0.494110000000    -0.163635   
N56      N      0.190580000000     0.589630000000     0.015770000000    -0.163017   
N57      N      0.415750000000     0.029400000000     0.317790000000    -0.161953   
N58      N      0.313490000000     0.028250000000     0.417320000000    -0.161727   
N59      N      0.187810000000     0.003380000000     0.444230000000    -0.163176   
N60      N      0.084550000000     0.530740000000     0.347630000000    -0.164325   
N61      N      0.103910000000     0.526240000000     0.207360000000    -0.163009   
N62      N      0.207800000000     0.522810000000     0.108450000000    -0.162993   
N63      N      0.438450000000     0.012030000000     0.192240000000    -0.162628   
N64      N      0.341150000000     0.531870000000     0.088020000000    -0.164273   
N65      N      0.009520000000     0.720980000000     0.420600000000    -0.162342   
N66      N      0.009910000000     0.620050000000     0.318330000000    -0.162662   
N67      N      0.024830000000     0.847880000000     0.446250000000    -0.162723   
N68      N      0.497270000000     0.950490000000     0.347060000000    -0.16336    
N69      N      0.513480000000     0.824700000000     0.112160000000    -0.163158   
N70      N      0.509680000000     0.930160000000     0.210520000000    -0.162656   
N71      N      0.019330000000     0.602080000000     0.201610000000    -0.16301    
N72      N      0.505050000000     0.695810000000     0.091880000000    -0.163107   
N73      N      0.446540000000     0.847590000000     0.521880000000    -0.163611   
N74      N      0.346450000000     0.948330000000     0.994170000000    -0.164526   
N75      N      0.422220000000     0.714480000000     0.512800000000    -0.161528   
N76      N      0.316050000000     0.617000000000     0.510160000000    -0.161428   
N77      N      0.114390000000     0.820820000000     0.015580000000    -0.164023   
N78      N      0.218990000000     0.918850000000     0.015640000000    -0.163748   
N79      N      0.089190000000     0.690210000000     0.992890000000    -0.16365    
N80      N      0.190720000000     0.589750000000     0.515370000000    -0.163484   
N81      N      0.415720000000     0.029380000000     0.817820000000    -0.16192    
N82      N      0.313430000000     0.028140000000     0.917320000000    -0.161719   
N83      N      0.187790000000     0.003390000000     0.944200000000    -0.16311    
N84      N      0.084530000000     0.530830000000     0.847610000000    -0.164329   
N85      N      0.103890000000     0.526310000000     0.707360000000    -0.163048   
N86      N      0.207790000000     0.522950000000     0.608440000000    -0.163035   
N87      N      0.438450000000     0.012060000000     0.692220000000    -0.162631   
N88      N      0.341170000000     0.532140000000     0.588020000000    -0.164268   
N89      N      0.009440000000     0.720990000000     0.920550000000    -0.162192   
N90      N      0.009780000000     0.620070000000     0.818290000000    -0.162716   
N91      N      0.025080000000     0.847890000000     0.946160000000    -0.162563   
N92      N      0.497290000000     0.950500000000     0.847050000000    -0.163334   
N93      N      0.513440000000     0.824590000000     0.612320000000    -0.16318    
N94      N      0.509660000000     0.930120000000     0.710590000000    -0.162631   
N95      N      0.019210000000     0.602060000000     0.701580000000    -0.162821   
N96      N      0.504760000000     0.695750000000     0.591840000000    -0.16308    
N97      N      0.946510000000     0.347440000000     0.022530000000    -0.163651   
N98      N      0.846540000000     0.448490000000     0.494470000000    -0.163941   
N99      N      0.922490000000     0.214010000000     0.013160000000    -0.162437   
N100     N      0.816600000000     0.116600000000     0.010450000000    -0.162076   
N101     N      0.614380000000     0.320830000000     0.515430000000    -0.16327    
N102     N      0.719010000000     0.418880000000     0.515570000000    -0.162949   
N103     N      0.589150000000     0.190320000000     0.494110000000    -0.163658   
N104     N      0.690580000000     0.089550000000     0.015860000000    -0.163058   
N105     N      0.915570000000     0.529180000000     0.317600000000    -0.16178    
N106     N      0.813450000000     0.528110000000     0.417260000000    -0.161733   
N107     N      0.687820000000     0.503320000000     0.444260000000    -0.162916   
N108     N      0.584700000000     0.030540000000     0.347530000000    -0.164307   
N109     N      0.603980000000     0.026520000000     0.207330000000    -0.163095   
N110     N      0.707850000000     0.022770000000     0.108410000000    -0.163094   
N111     N      0.938520000000     0.511140000000     0.192100000000    -0.162536   
N112     N      0.841270000000     0.031870000000     0.087910000000    -0.164126   
N113     N      0.509660000000     0.220810000000     0.420460000000    -0.161612   
N114     N      0.509370000000     0.120710000000     0.317340000000    -0.162164   
N115     N      0.525630000000     0.347980000000     0.445910000000    -0.162535   
N116     N      0.996340000000     0.450220000000     0.347350000000    -0.162614   
N117     N      0.014000000000     0.323550000000     0.112990000000    -0.163762   
N118     N      0.010090000000     0.429270000000     0.211310000000    -0.163316   
N119     N      0.519480000000     0.103010000000     0.202130000000    -0.161888   
N120     N      0.004890000000     0.195530000000     0.092040000000    -0.163682   
N121     N      0.946410000000     0.347590000000     0.522860000000    -0.163544   
N122     N      0.846480000000     0.448260000000     0.994340000000    -0.164516   
N123     N      0.922150000000     0.214460000000     0.512900000000    -0.161518   
N124     N      0.816010000000     0.116980000000     0.510080000000    -0.161396   
N125     N      0.614580000000     0.320560000000     0.015530000000    -0.164036   
N126     N      0.719040000000     0.418730000000     0.015620000000    -0.163746   
N127     N      0.589200000000     0.190130000000     0.992900000000    -0.163638   
N128     N      0.690710000000     0.089660000000     0.515480000000    -0.163385   
N129     N      0.915550000000     0.529160000000     0.817630000000    -0.161859   
N130     N      0.813390000000     0.528010000000     0.917250000000    -0.16159    
N131     N      0.687800000000     0.503320000000     0.944230000000    -0.162862   
N132     N      0.584680000000     0.030620000000     0.847510000000    -0.164258   
N133     N      0.603960000000     0.026580000000     0.707330000000    -0.163052   
N134     N      0.707830000000     0.022910000000     0.608400000000    -0.163183   
N135     N      0.938510000000     0.511170000000     0.692080000000    -0.162436   
N136     N      0.841280000000     0.032140000000     0.587910000000    -0.164271   
N137     N      0.509580000000     0.220830000000     0.920410000000    -0.161535   
N138     N      0.509240000000     0.120730000000     0.817300000000    -0.162136   
N139     N      0.525880000000     0.347990000000     0.945820000000    -0.16242    
N140     N      0.996360000000     0.450230000000     0.847330000000    -0.16257    
N141     N      0.013970000000     0.323430000000     0.613150000000    -0.163721   
N142     N      0.010070000000     0.429240000000     0.711370000000    -0.163388   
N143     N      0.519360000000     0.102990000000     0.702110000000    -0.161997   
N144     N      0.004600000000     0.195460000000     0.592000000000    -0.163559   
N145     N      0.946510000000     0.847430000000     0.022500000000    -0.163659   
N146     N      0.846550000000     0.948500000000     0.494480000000    -0.16396    
N147     N      0.922500000000     0.713980000000     0.013130000000    -0.162386   
N148     N      0.816600000000     0.616580000000     0.010470000000    -0.162148   
N149     N      0.614380000000     0.820830000000     0.515370000000    -0.163257   
N150     N      0.718990000000     0.918900000000     0.515520000000    -0.162922   
N151     N      0.589160000000     0.690300000000     0.494050000000    -0.163552   
N152     N      0.690580000000     0.589530000000     0.015850000000    -0.163006   
N153     N      0.915560000000     0.029210000000     0.317540000000    -0.161886   
N154     N      0.813490000000     0.028120000000     0.417250000000    -0.16175    
N155     N      0.687860000000     0.003360000000     0.444220000000    -0.163195   
N156     N      0.584680000000     0.531300000000     0.347690000000    -0.164298   
N157     N      0.603980000000     0.526490000000     0.207360000000    -0.163009   
N158     N      0.707840000000     0.522770000000     0.108430000000    -0.16301    
N159     N      0.938500000000     0.011350000000     0.192090000000    -0.162529   
N160     N      0.841260000000     0.531780000000     0.087920000000    -0.164152   
N161     N      0.509620000000     0.720830000000     0.420390000000    -0.161511   
N162     N      0.509270000000     0.620770000000     0.317250000000    -0.162119   
N163     N      0.525610000000     0.847950000000     0.445850000000    -0.162654   
N164     N      0.996230000000     0.950190000000     0.347300000000    -0.162661   
N165     N      0.014000000000     0.823550000000     0.112930000000    -0.163767   
N166     N      0.010050000000     0.929310000000     0.211210000000    -0.163388   
N167     N      0.519470000000     0.602930000000     0.202020000000    -0.161967   
N168     N      0.004890000000     0.695500000000     0.091970000000    -0.163586   
N169     N      0.946430000000     0.847590000000     0.522830000000    -0.16356    
N170     N      0.846490000000     0.948270000000     0.994350000000    -0.164503   
N171     N      0.922160000000     0.714440000000     0.512860000000    -0.161514   
N172     N      0.816010000000     0.616960000000     0.510090000000    -0.161414   
N173     N      0.614580000000     0.820560000000     0.015470000000    -0.164022   
N174     N      0.719030000000     0.918750000000     0.015570000000    -0.163761   
N175     N      0.589210000000     0.690120000000     0.992840000000    -0.163705   
N176     N      0.690710000000     0.589650000000     0.515470000000    -0.163456   
N177     N      0.915530000000     0.029190000000     0.817570000000    -0.16183    
N178     N      0.813430000000     0.028020000000     0.917240000000    -0.16168    
N179     N      0.687840000000     0.003370000000     0.944190000000    -0.163126   
N180     N      0.584660000000     0.531380000000     0.847670000000    -0.164278   
N181     N      0.603960000000     0.526560000000     0.707360000000    -0.163006   
N182     N      0.707830000000     0.522910000000     0.608420000000    -0.163076   
N183     N      0.938500000000     0.011380000000     0.692070000000    -0.162532   
N184     N      0.841280000000     0.532040000000     0.587920000000    -0.164205   
N185     N      0.509540000000     0.720850000000     0.920350000000    -0.161495   
N186     N      0.509140000000     0.620790000000     0.817210000000    -0.162126   
N187     N      0.525860000000     0.847960000000     0.945760000000    -0.162479   
N188     N      0.996250000000     0.950200000000     0.847290000000    -0.162573   
N189     N      0.013970000000     0.823440000000     0.613090000000    -0.16373    
N190     N      0.010030000000     0.929280000000     0.711270000000    -0.163406   
N191     N      0.519340000000     0.602910000000     0.701990000000    -0.161933   
N192     N      0.004600000000     0.695440000000     0.591930000000    -0.163541   
O1       O      0.058050000000     0.014530000000     0.215080000000    -0.368293   
O2       O      0.499740000000     0.497540000000     0.334730000000    -0.364481   
O3       O      0.071140000000     0.041280000000     0.302690000000    -0.371535   
O4       O      0.487110000000     0.458050000000     0.243360000000    -0.3576     
O5       O      0.038060000000     0.531750000000     0.335050000000    -0.365027   
O6       O      0.022390000000     0.475850000000     0.218010000000    -0.361176   
O7       O      0.489020000000     0.465050000000     0.301700000000    -0.363379   
O8       O      0.078450000000     0.047100000000     0.242980000000    -0.350812   
O9       O      0.484300000000     0.015960000000     0.204680000000    -0.366579   
O10      O      0.497560000000     0.073860000000     0.313610000000    -0.378787   
O11      O      0.042780000000     0.079680000000     0.237480000000    -0.357221   
O12      O      0.445480000000     0.502840000000     0.289970000000    -0.361081   
O13      O      0.462620000000     0.539480000000     0.315060000000    -0.370093   
O14      O      0.007440000000     0.057160000000     0.215930000000    -0.382123   
O15      O      0.453300000000     0.501840000000     0.237510000000    -0.360139   
O16      O      0.036330000000     0.088690000000     0.291580000000    -0.364086   
O17      O      0.020210000000     0.514450000000     0.272710000000    -0.585445   
O18      O      0.469410000000     0.218060000000     0.003340000000    -0.37015    
O19      O      0.026930000000     0.335420000000     0.492730000000    -0.368622   
O20      O      0.459980000000     0.301860000000     0.032800000000    -0.37703    
O21      O      0.035540000000     0.249480000000     0.450170000000    -0.359674   
O22      O      0.492810000000     0.335280000000     0.525120000000    -0.369703   
O23      O      0.501210000000     0.222140000000     0.467840000000    -0.366292   
O24      O      0.034770000000     0.301950000000     0.459910000000    -0.369952   
O25      O      0.450570000000     0.246130000000     0.036680000000    -0.352233   
O26      O      0.043140000000     0.202080000000     0.999810000000    -0.363709   
O27      O      0.029340000000     0.317600000000     0.068150000000    -0.374595   
O28      O      0.484350000000     0.234350000000     0.070810000000    -0.356026   
O29      O      0.082580000000     0.292860000000     0.491690000000    -0.358484   
O30      O      0.068670000000     0.317030000000     0.529940000000    -0.370784   
O31      O      0.517930000000     0.210390000000     0.047850000000    -0.368448   
O32      O      0.074160000000     0.236770000000     0.490710000000    -0.36114    
O33      O      0.490740000000     0.294170000000     0.081340000000    -0.359838   
O34      O      0.524930000000     0.265990000000     0.525130000000    -0.586101   
O35      O      0.330360000000     0.030830000000     0.041120000000    -0.368644   
O36      O      0.222690000000     0.465500000000     0.528850000000    -0.371216   
O37      O      0.240140000000     0.045060000000     0.079280000000    -0.355596   
O38      O      0.300600000000     0.461910000000     0.488150000000    -0.363298   
O39      O      0.215710000000     0.507200000000     0.063990000000    -0.373517   
O40      O      0.332780000000     0.494710000000     0.999420000000    -0.367381   
O41      O      0.245330000000     0.451110000000     0.490030000000    -0.356547   
O42      O      0.296440000000     0.040760000000     0.072490000000    -0.365561   
O43      O      0.311410000000     0.036910000000     0.464500000000    -0.370009   
O44      O      0.202850000000     0.042910000000     0.519220000000    -0.371952   
O45      O      0.287220000000     0.086490000000     0.035560000000    -0.356811   
O46      O      0.233930000000     0.496920000000     0.457140000000    -0.368919   
O47      O      0.201190000000     0.504480000000     0.490290000000    -0.367982   
O48      O      0.312410000000     0.069760000000     0.999240000000    -0.369957   
O49      O      0.286430000000     0.500460000000     0.446870000000    -0.360324   
O50      O      0.234690000000     0.076270000000     0.030270000000    -0.374068   
O51      O      0.270350000000     0.510340000000     0.022290000000    -0.587385   
O52      O      0.058040000000     0.014550000000     0.715080000000    -0.368319   
O53      O      0.499740000000     0.497550000000     0.834720000000    -0.364525   
O54      O      0.071100000000     0.041340000000     0.802670000000    -0.371708   
O55      O      0.487080000000     0.458060000000     0.743390000000    -0.357684   
O56      O      0.038030000000     0.531810000000     0.835030000000    -0.365163   
O57      O      0.022380000000     0.475820000000     0.718050000000    -0.361367   
O58      O      0.488990000000     0.465070000000     0.801700000000    -0.363386   
O59      O      0.078400000000     0.047160000000     0.742970000000    -0.350758   
O60      O      0.484300000000     0.015950000000     0.704670000000    -0.366557   
O61      O      0.497490000000     0.073870000000     0.813600000000    -0.378811   
O62      O      0.042690000000     0.079700000000     0.737450000000    -0.35708    
O63      O      0.445450000000     0.502850000000     0.789970000000    -0.361185   
O64      O      0.462590000000     0.539470000000     0.815080000000    -0.370077   
O65      O      0.007370000000     0.057130000000     0.715910000000    -0.381836   
O66      O      0.453290000000     0.501870000000     0.737490000000    -0.360462   
O67      O      0.036220000000     0.088730000000     0.791530000000    -0.364169   
O68      O      0.020190000000     0.514470000000     0.772710000000    -0.585356   
O69      O      0.469120000000     0.218340000000     0.503200000000    -0.369746   
O70      O      0.027170000000     0.335420000000     0.992630000000    -0.367288   
O71      O      0.459840000000     0.301970000000     0.533000000000    -0.376867   
O72      O      0.035510000000     0.249510000000     0.950050000000    -0.359494   
O73      O      0.492920000000     0.335180000000     0.024860000000    -0.370126   
O74      O      0.501330000000     0.222050000000     0.967830000000    -0.364824   
O75      O      0.034940000000     0.301940000000     0.959810000000    -0.369895   
O76      O      0.450340000000     0.246300000000     0.536660000000    -0.352257   
O77      O      0.042980000000     0.202190000000     0.500240000000    -0.364738   
O78      O      0.029260000000     0.317530000000     0.568280000000    -0.374811   
O79      O      0.484100000000     0.234350000000     0.570840000000    -0.356296   
O80      O      0.082760000000     0.292700000000     0.991690000000    -0.357168   
O81      O      0.068830000000     0.316870000000     0.029940000000    -0.370415   
O82      O      0.517620000000     0.210380000000     0.547820000000    -0.368052   
O83      O      0.074270000000     0.236650000000     0.990090000000    -0.360659   
O84      O      0.490640000000     0.294150000000     0.581470000000    -0.360059   
O85      O      0.525120000000     0.265950000000     0.025040000000    -0.586447   
O86      O      0.330380000000     0.031120000000     0.541120000000    -0.368602   
O87      O      0.222650000000     0.465370000000     0.028840000000    -0.370823   
O88      O      0.240140000000     0.045210000000     0.579290000000    -0.355574   
O89      O      0.300530000000     0.461710000000     0.988080000000    -0.362966   
O90      O      0.215720000000     0.507340000000     0.563990000000    -0.373879   
O91      O      0.332810000000     0.494930000000     0.499510000000    -0.36875    
O92      O      0.245320000000     0.450960000000     0.990040000000    -0.355146   
O93      O      0.296440000000     0.040950000000     0.572500000000    -0.365876   
O94      O      0.311370000000     0.036750000000     0.964510000000    -0.369076   
O95      O      0.202760000000     0.042790000000     0.019420000000    -0.372226   
O96      O      0.287020000000     0.086710000000     0.535450000000    -0.357111   
O97      O      0.233900000000     0.496830000000     0.957120000000    -0.369027   
O98      O      0.201160000000     0.504420000000     0.990260000000    -0.366905   
O99      O      0.312210000000     0.070020000000     0.499110000000    -0.372616   
O100     O      0.286370000000     0.500320000000     0.946840000000    -0.360368   
O101     O      0.234750000000     0.076400000000     0.530140000000    -0.373892   
O102     O      0.270400000000     0.510490000000     0.522320000000    -0.586851   
O103     O      0.058040000000     0.514510000000     0.215100000000    -0.36841    
O104     O      0.499640000000     0.997510000000     0.334700000000    -0.364752   
O105     O      0.071120000000     0.541650000000     0.302760000000    -0.371465   
O106     O      0.487070000000     0.958070000000     0.243290000000    -0.357416   
O107     O      0.038070000000     0.031450000000     0.334990000000    -0.364909   
O108     O      0.022360000000     0.975880000000     0.217950000000    -0.361641   
O109     O      0.488960000000     0.965040000000     0.301650000000    -0.363429   
O110     O      0.078430000000     0.547100000000     0.242980000000    -0.351006   
O111     O      0.484310000000     0.515850000000     0.204690000000    -0.366623   
O112     O      0.497520000000     0.573900000000     0.313580000000    -0.378665   
O113     O      0.042760000000     0.579660000000     0.237400000000    -0.357277   
O114     O      0.445450000000     0.002860000000     0.289920000000    -0.360747   
O115     O      0.462600000000     0.039500000000     0.315000000000    -0.370074   
O116     O      0.007410000000     0.557110000000     0.215900000000    -0.382      
O117     O      0.453290000000     0.001920000000     0.237470000000    -0.360013   
O118     O      0.036250000000     0.588750000000     0.291510000000    -0.364059   
O119     O      0.020210000000     0.014420000000     0.272690000000    -0.584985   
O120     O      0.469410000000     0.718040000000     0.003290000000    -0.369985   
O121     O      0.026920000000     0.835400000000     0.492660000000    -0.368699   
O122     O      0.459990000000     0.801850000000     0.032750000000    -0.377018   
O123     O      0.035520000000     0.749480000000     0.450110000000    -0.3598     
O124     O      0.492820000000     0.835270000000     0.525070000000    -0.369696   
O125     O      0.501190000000     0.722140000000     0.467780000000    -0.366216   
O126     O      0.034780000000     0.801930000000     0.459850000000    -0.369939   
O127     O      0.450570000000     0.746120000000     0.036630000000    -0.352136   
O128     O      0.043140000000     0.702070000000     0.999750000000    -0.363567   
O129     O      0.029340000000     0.817590000000     0.068080000000    -0.374671   
O130     O      0.484360000000     0.734330000000     0.070750000000    -0.356045   
O131     O      0.082590000000     0.792850000000     0.491630000000    -0.358497   
O132     O      0.068680000000     0.817020000000     0.529880000000    -0.370751   
O133     O      0.517930000000     0.710380000000     0.047780000000    -0.36848    
O134     O      0.074170000000     0.736760000000     0.490660000000    -0.361155   
O135     O      0.490750000000     0.794170000000     0.081280000000    -0.359803   
O136     O      0.524940000000     0.765970000000     0.525070000000    -0.586025   
O137     O      0.330350000000     0.530760000000     0.041140000000    -0.368912   
O138     O      0.222680000000     0.965510000000     0.528810000000    -0.3715     
O139     O      0.240140000000     0.545050000000     0.079300000000    -0.355497   
O140     O      0.300620000000     0.961920000000     0.488140000000    -0.363404   
O141     O      0.215720000000     0.007210000000     0.063960000000    -0.373446   
O142     O      0.332790000000     0.994720000000     0.999430000000    -0.367801   
O143     O      0.245340000000     0.951130000000     0.489990000000    -0.356527   
O144     O      0.296450000000     0.540730000000     0.072510000000    -0.365609   
O145     O      0.311380000000     0.536900000000     0.464510000000    -0.369977   
O146     O      0.202850000000     0.542900000000     0.519230000000    -0.372123   
O147     O      0.287230000000     0.586470000000     0.035580000000    -0.356845   
O148     O      0.233960000000     0.996930000000     0.457120000000    -0.369637   
O149     O      0.201220000000     0.004530000000     0.490250000000    -0.368095   
O150     O      0.312410000000     0.569740000000     0.999250000000    -0.369895   
O151     O      0.286460000000     0.000470000000     0.446860000000    -0.359923   
O152     O      0.234680000000     0.576250000000     0.030290000000    -0.374148   
O153     O      0.270360000000     0.010350000000     0.022280000000    -0.587105   
O154     O      0.058040000000     0.514530000000     0.715100000000    -0.368518   
O155     O      0.499640000000     0.997510000000     0.834690000000    -0.364888   
O156     O      0.071080000000     0.541710000000     0.802740000000    -0.371653   
O157     O      0.487040000000     0.958080000000     0.743310000000    -0.357541   
O158     O      0.038050000000     0.031510000000     0.834970000000    -0.365148   
O159     O      0.022360000000     0.975850000000     0.717990000000    -0.361663   
O160     O      0.488930000000     0.965050000000     0.801640000000    -0.363291   
O161     O      0.078390000000     0.547160000000     0.742970000000    -0.350941   
O162     O      0.484310000000     0.515840000000     0.704680000000    -0.366583   
O163     O      0.497450000000     0.573910000000     0.813580000000    -0.378564   
O164     O      0.042670000000     0.579690000000     0.737380000000    -0.357064   
O165     O      0.445420000000     0.002870000000     0.789920000000    -0.360845   
O166     O      0.462570000000     0.039490000000     0.815020000000    -0.37002    
O167     O      0.007350000000     0.557080000000     0.715880000000    -0.381862   
O168     O      0.453270000000     0.001950000000     0.737460000000    -0.360121   
O169     O      0.036140000000     0.588800000000     0.791460000000    -0.364016   
O170     O      0.020180000000     0.014440000000     0.772690000000    -0.585062   
O171     O      0.469130000000     0.718320000000     0.503150000000    -0.369574   
O172     O      0.027160000000     0.835400000000     0.992570000000    -0.367369   
O173     O      0.459850000000     0.801960000000     0.532950000000    -0.37692    
O174     O      0.035500000000     0.749520000000     0.949990000000    -0.359523   
O175     O      0.492930000000     0.835170000000     0.024810000000    -0.370042   
O176     O      0.501320000000     0.722050000000     0.967780000000    -0.364873   
O177     O      0.034940000000     0.801920000000     0.959750000000    -0.369847   
O178     O      0.450350000000     0.746280000000     0.536610000000    -0.352141   
O179     O      0.042990000000     0.702170000000     0.500180000000    -0.364631   
O180     O      0.029260000000     0.817520000000     0.568220000000    -0.374859   
O181     O      0.484100000000     0.734330000000     0.570780000000    -0.356098   
O182     O      0.082770000000     0.792690000000     0.991630000000    -0.357138   
O183     O      0.068840000000     0.816860000000     0.029880000000    -0.370502   
O184     O      0.517620000000     0.710360000000     0.547760000000    -0.368065   
O185     O      0.074280000000     0.736640000000     0.990040000000    -0.360677   
O186     O      0.490640000000     0.794140000000     0.581420000000    -0.359758   
O187     O      0.525130000000     0.765930000000     0.024980000000    -0.58648    
O188     O      0.330360000000     0.531050000000     0.541140000000    -0.368916   
O189     O      0.222650000000     0.965390000000     0.028800000000    -0.371204   
O190     O      0.240130000000     0.545200000000     0.579310000000    -0.355733   
O191     O      0.300550000000     0.961720000000     0.988080000000    -0.363165   
O192     O      0.215730000000     0.007350000000     0.563960000000    -0.373673   
O193     O      0.332830000000     0.994950000000     0.499520000000    -0.368942   
O194     O      0.245330000000     0.950980000000     0.990000000000    -0.355128   
O195     O      0.296450000000     0.540930000000     0.572520000000    -0.365845   
O196     O      0.311340000000     0.536740000000     0.964520000000    -0.369154   
O197     O      0.202750000000     0.542770000000     0.019430000000    -0.372191   
O198     O      0.287030000000     0.586700000000     0.535470000000    -0.357066   
O199     O      0.233920000000     0.996850000000     0.957090000000    -0.36976    
O200     O      0.201190000000     0.004480000000     0.990220000000    -0.367173   
O201     O      0.312200000000     0.570000000000     0.499120000000    -0.372669   
O202     O      0.286400000000     0.000340000000     0.946820000000    -0.359867   
O203     O      0.234740000000     0.576390000000     0.530150000000    -0.373905   
O204     O      0.270410000000     0.010510000000     0.522300000000    -0.586807   
O205     O      0.558050000000     0.015040000000     0.215040000000    -0.368339   
O206     O      0.999140000000     0.497170000000     0.334820000000    -0.363386   
O207     O      0.571300000000     0.041720000000     0.302720000000    -0.371937   
O208     O      0.987150000000     0.457450000000     0.243590000000    -0.356354   
O209     O      0.538190000000     0.532360000000     0.335080000000    -0.364969   
O210     O      0.522190000000     0.476580000000     0.217670000000    -0.361225   
O211     O      0.988490000000     0.464650000000     0.301820000000    -0.362927   
O212     O      0.578640000000     0.047390000000     0.243040000000    -0.351308   
O213     O      0.984360000000     0.015160000000     0.204580000000    -0.365352   
O214     O      0.997700000000     0.073360000000     0.314000000000    -0.376289   
O215     O      0.543030000000     0.080230000000     0.237610000000    -0.356633   
O216     O      0.945280000000     0.502530000000     0.289820000000    -0.36095    
O217     O      0.962460000000     0.539160000000     0.314890000000    -0.369484   
O218     O      0.507540000000     0.057910000000     0.216100000000    -0.381242   
O219     O      0.953250000000     0.501330000000     0.237410000000    -0.36065    
O220     O      0.536160000000     0.089250000000     0.291180000000    -0.364631   
O221     O      0.520350000000     0.514930000000     0.272690000000    -0.585128   
O222     O      0.969370000000     0.218000000000     0.003500000000    -0.369036   
O223     O      0.527440000000     0.335480000000     0.492320000000    -0.368372   
O224     O      0.959890000000     0.301770000000     0.033340000000    -0.377292   
O225     O      0.535640000000     0.249360000000     0.449940000000    -0.359778   
O226     O      0.992700000000     0.335260000000     0.525920000000    -0.368457   
O227     O      0.001130000000     0.222210000000     0.468050000000    -0.366719   
O228     O      0.535130000000     0.301930000000     0.459550000000    -0.369676   
O229     O      0.950480000000     0.246050000000     0.036820000000    -0.352378   
O230     O      0.543160000000     0.202050000000     0.999700000000    -0.36346    
O231     O      0.529140000000     0.318170000000     0.067610000000    -0.375119   
O232     O      0.984200000000     0.234090000000     0.070970000000    -0.354726   
O233     O      0.582760000000     0.292700000000     0.491470000000    -0.358319   
O234     O      0.568820000000     0.316870000000     0.529710000000    -0.370835   
O235     O      0.017870000000     0.210270000000     0.048030000000    -0.368284   
O236     O      0.574230000000     0.236680000000     0.490520000000    -0.361121   
O237     O      0.990900000000     0.293640000000     0.081810000000    -0.358714   
O238     O      0.024850000000     0.265930000000     0.525420000000    -0.586276   
O239     O      0.830420000000     0.030760000000     0.041030000000    -0.368575   
O240     O      0.722710000000     0.465400000000     0.528800000000    -0.371231   
O241     O      0.740220000000     0.044960000000     0.079280000000    -0.355588   
O242     O      0.800660000000     0.461840000000     0.488170000000    -0.363439   
O243     O      0.715730000000     0.507150000000     0.063970000000    -0.37371    
O244     O      0.832800000000     0.494650000000     0.999480000000    -0.367418   
O245     O      0.745380000000     0.451020000000     0.489990000000    -0.356608   
O246     O      0.796540000000     0.040700000000     0.072430000000    -0.365525   
O247     O      0.811430000000     0.036830000000     0.464420000000    -0.369734   
O248     O      0.702870000000     0.042810000000     0.519290000000    -0.371996   
O249     O      0.787230000000     0.086420000000     0.035520000000    -0.356765   
O250     O      0.733970000000     0.496850000000     0.457120000000    -0.368973   
O251     O      0.701240000000     0.504410000000     0.490280000000    -0.368061   
O252     O      0.812390000000     0.069720000000     0.999150000000    -0.369955   
O253     O      0.786450000000     0.500350000000     0.446830000000    -0.360423   
O254     O      0.734710000000     0.076180000000     0.030290000000    -0.373988   
O255     O      0.770400000000     0.510260000000     0.022260000000    -0.587358   
O256     O      0.558040000000     0.015060000000     0.715050000000    -0.368599   
O257     O      0.999150000000     0.497180000000     0.834810000000    -0.36336    
O258     O      0.571260000000     0.041780000000     0.802690000000    -0.372013   
O259     O      0.987120000000     0.457460000000     0.743610000000    -0.356488   
O260     O      0.538170000000     0.532410000000     0.835070000000    -0.365058   
O261     O      0.522190000000     0.476550000000     0.717700000000    -0.361244   
O262     O      0.988460000000     0.464670000000     0.801810000000    -0.363035   
O263     O      0.578600000000     0.047450000000     0.743030000000    -0.351232   
O264     O      0.984360000000     0.015150000000     0.704560000000    -0.365114   
O265     O      0.997630000000     0.073370000000     0.813990000000    -0.37645    
O266     O      0.542940000000     0.080250000000     0.737580000000    -0.356665   
O267     O      0.945250000000     0.502540000000     0.789820000000    -0.361028   
O268     O      0.962430000000     0.539150000000     0.814920000000    -0.369443   
O269     O      0.507480000000     0.057880000000     0.716080000000    -0.381296   
O270     O      0.953230000000     0.501360000000     0.737400000000    -0.360526   
O271     O      0.536050000000     0.089290000000     0.791130000000    -0.364848   
O272     O      0.520330000000     0.514950000000     0.772690000000    -0.585081   
O273     O      0.969080000000     0.218280000000     0.503360000000    -0.368596   
O274     O      0.527670000000     0.335470000000     0.992230000000    -0.367168   
O275     O      0.959740000000     0.301880000000     0.533540000000    -0.376841   
O276     O      0.535610000000     0.249390000000     0.949820000000    -0.359716   
O277     O      0.992810000000     0.335170000000     0.025670000000    -0.36864    
O278     O      0.001260000000     0.222120000000     0.968040000000    -0.365314   
O279     O      0.535300000000     0.301920000000     0.959450000000    -0.369526   
O280     O      0.950250000000     0.246210000000     0.536800000000    -0.352514   
O281     O      0.543010000000     0.202160000000     0.500130000000    -0.364669   
O282     O      0.529060000000     0.318090000000     0.567750000000    -0.375379   
O283     O      0.983940000000     0.234090000000     0.571010000000    -0.354557   
O284     O      0.582940000000     0.292540000000     0.991480000000    -0.356998   
O285     O      0.568980000000     0.316710000000     0.029710000000    -0.370709   
O286     O      0.017550000000     0.210250000000     0.548000000000    -0.367938   
O287     O      0.574340000000     0.236560000000     0.989890000000    -0.360517   
O288     O      0.990790000000     0.293620000000     0.581950000000    -0.358815   
O289     O      0.025040000000     0.265890000000     0.025330000000    -0.586723   
O290     O      0.830440000000     0.031050000000     0.541030000000    -0.368558   
O291     O      0.722680000000     0.465270000000     0.028790000000    -0.370971   
O292     O      0.740220000000     0.045100000000     0.579280000000    -0.355803   
O293     O      0.800590000000     0.461640000000     0.988110000000    -0.363067   
O294     O      0.715740000000     0.507280000000     0.563970000000    -0.373772   
O295     O      0.832840000000     0.494880000000     0.499570000000    -0.368705   
O296     O      0.745370000000     0.450870000000     0.990000000000    -0.355314   
O297     O      0.796550000000     0.040890000000     0.572440000000    -0.3659     
O298     O      0.811380000000     0.036660000000     0.964430000000    -0.369251   
O299     O      0.702780000000     0.042690000000     0.019480000000    -0.372128   
O300     O      0.787030000000     0.086650000000     0.535400000000    -0.357135   
O301     O      0.733940000000     0.496770000000     0.957100000000    -0.368998   
O302     O      0.701210000000     0.504350000000     0.990250000000    -0.367083   
O303     O      0.812190000000     0.069980000000     0.499020000000    -0.372549   
O304     O      0.786390000000     0.500210000000     0.946800000000    -0.360233   
O305     O      0.734770000000     0.076310000000     0.530160000000    -0.373873   
O306     O      0.770440000000     0.510420000000     0.522290000000    -0.586957   
O307     O      0.558050000000     0.515010000000     0.215060000000    -0.368472   
O308     O      0.999050000000     0.997140000000     0.334790000000    -0.363648   
O309     O      0.571280000000     0.542110000000     0.302790000000    -0.372053   
O310     O      0.987120000000     0.957480000000     0.243520000000    -0.356414   
O311     O      0.538200000000     0.032040000000     0.335020000000    -0.364754   
O312     O      0.522160000000     0.976620000000     0.217600000000    -0.361631   
O313     O      0.988440000000     0.964630000000     0.301770000000    -0.363085   
O314     O      0.578630000000     0.547390000000     0.243050000000    -0.351318   
O315     O      0.984360000000     0.515060000000     0.204590000000    -0.365324   
O316     O      0.997660000000     0.573400000000     0.313980000000    -0.376157   
O317     O      0.543020000000     0.580210000000     0.237530000000    -0.35666    
O318     O      0.945260000000     0.002550000000     0.289770000000    -0.360589   
O319     O      0.962450000000     0.039170000000     0.314840000000    -0.369514   
O320     O      0.507520000000     0.557870000000     0.216060000000    -0.381334   
O321     O      0.953240000000     0.001400000000     0.237380000000    -0.360187   
O322     O      0.536080000000     0.589320000000     0.291110000000    -0.364664   
O323     O      0.520340000000     0.014900000000     0.272670000000    -0.584719   
O324     O      0.969380000000     0.717980000000     0.003450000000    -0.368818   
O325     O      0.527430000000     0.835460000000     0.492250000000    -0.3685     
O326     O      0.959900000000     0.801760000000     0.033300000000    -0.377159   
O327     O      0.535620000000     0.749360000000     0.449870000000    -0.359889   
O328     O      0.992710000000     0.835250000000     0.525880000000    -0.368431   
O329     O      0.001120000000     0.722210000000     0.467990000000    -0.366777   
O330     O      0.535140000000     0.801910000000     0.459490000000    -0.369778   
O331     O      0.950490000000     0.746030000000     0.036780000000    -0.352332   
O332     O      0.543160000000     0.702040000000     0.999640000000    -0.363501   
O333     O      0.529140000000     0.818160000000     0.067540000000    -0.375245   
O334     O      0.984200000000     0.734070000000     0.070910000000    -0.354569   
O335     O      0.582770000000     0.792690000000     0.491410000000    -0.358367   
O336     O      0.568830000000     0.816850000000     0.529650000000    -0.370954   
O337     O      0.017880000000     0.710250000000     0.047970000000    -0.368287   
O338     O      0.574240000000     0.736670000000     0.490460000000    -0.361041   
O339     O      0.990910000000     0.793640000000     0.081750000000    -0.358935   
O340     O      0.024860000000     0.765910000000     0.525370000000    -0.586204   
O341     O      0.830410000000     0.530690000000     0.041040000000    -0.368631   
O342     O      0.722710000000     0.965410000000     0.528760000000    -0.371607   
O343     O      0.740220000000     0.544950000000     0.079290000000    -0.35561    
O344     O      0.800680000000     0.961860000000     0.488170000000    -0.363667   
O345     O      0.715740000000     0.007160000000     0.063940000000    -0.373434   
O346     O      0.832820000000     0.994670000000     0.999490000000    -0.367731   
O347     O      0.745390000000     0.951040000000     0.489950000000    -0.356616   
O348     O      0.796550000000     0.540680000000     0.072440000000    -0.365729   
O349     O      0.811400000000     0.536820000000     0.464430000000    -0.36982    
O350     O      0.702860000000     0.542800000000     0.519290000000    -0.371931   
O351     O      0.787240000000     0.586400000000     0.035530000000    -0.356846   
O352     O      0.734010000000     0.996870000000     0.457100000000    -0.369559   
O353     O      0.701270000000     0.004460000000     0.490240000000    -0.368087   
O354     O      0.812380000000     0.569700000000     0.999160000000    -0.369981   
O355     O      0.786480000000     0.000360000000     0.446820000000    -0.359908   
O356     O      0.734710000000     0.576160000000     0.030300000000    -0.373954   
O357     O      0.770410000000     0.010280000000     0.022240000000    -0.587196   
O358     O      0.558040000000     0.515030000000     0.715070000000    -0.368471   
O359     O      0.999060000000     0.997150000000     0.834780000000    -0.363751   
O360     O      0.571240000000     0.542160000000     0.802770000000    -0.37213    
O361     O      0.987090000000     0.957480000000     0.743540000000    -0.356446   
O362     O      0.538180000000     0.032090000000     0.835010000000    -0.364818   
O363     O      0.522160000000     0.976590000000     0.717640000000    -0.36162    
O364     O      0.988410000000     0.964650000000     0.801760000000    -0.36303    
O365     O      0.578580000000     0.547450000000     0.743040000000    -0.351295   
O366     O      0.984360000000     0.515040000000     0.704570000000    -0.365323   
O367     O      0.997590000000     0.573410000000     0.813970000000    -0.376189   
O368     O      0.542930000000     0.580230000000     0.737500000000    -0.356732   
O369     O      0.945230000000     0.002560000000     0.789770000000    -0.360715   
O370     O      0.962420000000     0.039160000000     0.814870000000    -0.369412   
O371     O      0.507460000000     0.557830000000     0.716040000000    -0.381158   
O372     O      0.953220000000     0.001430000000     0.737370000000    -0.36008    
O373     O      0.535980000000     0.589360000000     0.791060000000    -0.364591   
O374     O      0.520310000000     0.014920000000     0.772670000000    -0.584686   
O375     O      0.969090000000     0.718260000000     0.503310000000    -0.368535   
O376     O      0.527660000000     0.835450000000     0.992160000000    -0.367115   
O377     O      0.959750000000     0.801870000000     0.533500000000    -0.37686    
O378     O      0.535590000000     0.749400000000     0.949750000000    -0.359519   
O379     O      0.992820000000     0.835160000000     0.025620000000    -0.368694   
O380     O      0.001250000000     0.722130000000     0.967980000000    -0.365513   
O381     O      0.535310000000     0.801900000000     0.959380000000    -0.369439   
O382     O      0.950260000000     0.746200000000     0.536750000000    -0.352278   
O383     O      0.543010000000     0.702150000000     0.500070000000    -0.364565   
O384     O      0.529060000000     0.818090000000     0.567680000000    -0.375289   
O385     O      0.983940000000     0.734070000000     0.570950000000    -0.354617   
O386     O      0.582940000000     0.792530000000     0.991410000000    -0.356885   
O387     O      0.568980000000     0.816700000000     0.029650000000    -0.370612   
O388     O      0.017560000000     0.710230000000     0.547940000000    -0.367787   
O389     O      0.574350000000     0.736540000000     0.989840000000    -0.360469   
O390     O      0.990800000000     0.793610000000     0.581890000000    -0.358909   
O391     O      0.025050000000     0.765880000000     0.025270000000    -0.586691   
O392     O      0.830430000000     0.530980000000     0.541040000000    -0.368609   
O393     O      0.722670000000     0.965290000000     0.028750000000    -0.371271   
O394     O      0.740210000000     0.545100000000     0.579300000000    -0.355759   
O395     O      0.800610000000     0.961650000000     0.988110000000    -0.36319    
O396     O      0.715750000000     0.007290000000     0.563940000000    -0.373648   
O397     O      0.832860000000     0.994900000000     0.499580000000    -0.368928   
O398     O      0.745370000000     0.950890000000     0.989960000000    -0.355241   
O399     O      0.796550000000     0.540870000000     0.572450000000    -0.365845   
O400     O      0.811350000000     0.536660000000     0.964440000000    -0.369095   
O401     O      0.702770000000     0.542670000000     0.019480000000    -0.372102   
O402     O      0.787040000000     0.586630000000     0.535420000000    -0.357026   
O403     O      0.733970000000     0.996780000000     0.957070000000    -0.369572   
O404     O      0.701240000000     0.004410000000     0.990210000000    -0.367128   
O405     O      0.812170000000     0.569950000000     0.499030000000    -0.372612   
O406     O      0.786420000000     0.000230000000     0.946790000000    -0.35997    
O407     O      0.734760000000     0.576290000000     0.530170000000    -0.373937   
O408     O      0.770460000000     0.010430000000     0.522270000000    -0.586712   


