data_structure

_audit_creation_method RASPA-1.0
_audit_creation_date 2023-6-4
_audit_author_name 'Poobodin Mano'

_cell_length_a    31.0027
_cell_length_b    30.4045
_cell_length_c    31.7714
_cell_angle_alpha 87.1361
_cell_angle_beta  93.8188
_cell_angle_gamma 120.435
_cell_volume      25759.7

_symmetry_cell_setting          triclinic
_symmetry_space_group_name_Hall 'P 1'
_symmetry_space_group_name_H-M  'P 1'
_symmetry_Int_Tables_number     1

_symmetry_equiv_pos_as_xyz 'x,y,z'

loop_
_atom_site_label
_atom_site_type_symbol
_atom_site_fract_x
_atom_site_fract_y
_atom_site_fract_z
_atom_site_charge
C1       C      0.028980000000     0.163510000000     0.998130000000     0.45151    
C2       C      0.921010000000     0.987810000000     0.005990000000     0.496576   
C3       C      0.060180000000     0.094040000000     0.932430000000     0.48093    
C4       C      0.927750000000     0.041290000000     0.114160000000     0.410714   
C5       C      0.053920000000     0.074050000000     0.142030000000     0.464536   
C6       C      0.135520000000     0.059400000000     0.003800000000     0.476114   
C7       C      0.129440000000     0.188840000000     0.072810000000     0.431969   
C8       C      0.992000000000     0.941740000000     0.053120000000     0.495028   
C9       C      0.016710000000     0.043040000000     0.430280000000     0.452184   
C10      C      0.064190000000     0.164820000000     0.578740000000     0.459125   
C11      C      0.931420000000     0.026600000000     0.494640000000     0.443109   
C12      C      0.148900000000     0.177340000000     0.524120000000     0.472885   
C13      C      0.159660000000     0.065770000000     0.541000000000     0.466845   
C14      C      0.952480000000     0.963040000000     0.584950000000     0.463783   
C15      C      0.076410000000     0.980520000000     0.484350000000     0.455166   
C16      C      0.033710000000     0.052770000000     0.639640000000     0.466221   
C17      C      0.949190000000     0.440720000000     0.012520000000     0.468528   
C18      C      0.062750000000     0.682610000000     0.082850000000     0.405001   
C19      C      0.942850000000     0.559490000000     0.069050000000     0.485539   
C20      C      0.047610000000     0.561800000000     0.965920000000     0.453485   
C21      C      0.151500000000     0.571380000000     0.032790000000     0.452702   
C22      C      0.996730000000     0.531220000000     0.166450000000     0.480564   
C23      C      0.019830000000     0.424400000000     0.096240000000     0.468555   
C24      C      0.140340000000     0.630820000000     0.118170000000     0.466589   
C25      C      0.948740000000     0.444000000000     0.534970000000     0.468809   
C26      C      0.090590000000     0.683930000000     0.516070000000     0.446104   
C27      C      0.938380000000     0.562940000000     0.581320000000     0.50339    
C28      C      0.052370000000     0.553230000000     0.462070000000     0.48021    
C29      C      0.172430000000     0.588580000000     0.521240000000     0.411416   
C30      C      0.032170000000     0.574290000000     0.666330000000     0.47996    
C31      C      0.046160000000     0.457030000000     0.612850000000     0.475575   
C32      C      0.148390000000     0.656790000000     0.606440000000     0.451527   
C33      C      0.433250000000     0.045390000000     0.001880000000     0.45832    
C34      C      0.562710000000     0.944110000000     0.999460000000     0.463754   
C35      C      0.545640000000     0.051450000000     0.937470000000     0.473586   
C36      C      0.419300000000     0.924970000000     0.079040000000     0.4519     
C37      C      0.526270000000     0.011520000000     0.139770000000     0.467634   
C38      C      0.653820000000     0.128740000000     0.005420000000     0.384125   
C39      C      0.500530000000     0.116070000000     0.087700000000     0.372975   
C40      C      0.620830000000     0.022080000000     0.090040000000     0.463225   
C41      C      0.457140000000     0.056630000000     0.541450000000     0.503888   
C42      C      0.616500000000     0.970280000000     0.494670000000     0.38402    
C43      C      0.542850000000     0.025930000000     0.438120000000     0.518486   
C44      C      0.464690000000     0.949280000000     0.575910000000     0.442514   
C45      C      0.570900000000     0.018510000000     0.646140000000     0.433378   
C46      C      0.650760000000     0.142020000000     0.478280000000     0.505396   
C47      C      0.575710000000     0.163270000000     0.569530000000     0.504005   
C48      C      0.664990000000     0.040990000000     0.582170000000     0.46724    
C49      C      0.445250000000     0.457550000000     0.011620000000     0.474661   
C50      C      0.611000000000     0.687720000000     0.975400000000     0.403618   
C51      C      0.464840000000     0.585520000000     0.065140000000     0.490448   
C52      C      0.538820000000     0.550720000000     0.941670000000     0.463177   
C53      C      0.649700000000     0.556040000000     0.988300000000     0.47437    
C54      C      0.550450000000     0.573520000000     0.144910000000     0.471459   
C55      C      0.526620000000     0.437380000000     0.086050000000     0.468462   
C56      C      0.670940000000     0.667130000000     0.066660000000     0.474753   
C57      C      0.448390000000     0.480840000000     0.539250000000     0.469344   
C58      C      0.620000000000     0.690550000000     0.493710000000     0.461884   
C59      C      0.473630000000     0.583950000000     0.576670000000     0.463048   
C60      C      0.585220000000     0.593730000000     0.443130000000     0.457507   
C61      C      0.632030000000     0.524310000000     0.508710000000     0.459327   
C62      C      0.576680000000     0.606880000000     0.649310000000     0.447878   
C63      C      0.549180000000     0.458510000000     0.569820000000     0.456358   
C64      C      0.672460000000     0.674040000000     0.595070000000     0.470914   
C65      C      0.576990000000     0.563630000000     0.716610000000    -0.0176826  
C66      C      0.523870000000     0.591670000000     0.876580000000    -0.0209621  
C67      C      0.532470000000     0.517000000000     0.870900000000    -0.0203783  
C68      C      0.538060000000     0.543420000000     0.829560000000     0.0151969  
C69      C      0.531580000000     0.585030000000     0.832200000000     0.0136249  
C70      C      0.537020000000     0.617110000000     0.796960000000    -0.0646267  
C71      C      0.558390000000     0.632400000000     0.717310000000    -0.0210028  
C72      C      0.552980000000     0.533120000000     0.792610000000    -0.0658173  
C73      C      0.550640000000     0.605830000000     0.759380000000     0.0127243  
C74      C      0.559700000000     0.565770000000     0.758000000000     0.0122484  
C75      C      0.538050000000     0.559670000000     0.376350000000    -0.0188709  
C76      C      0.597570000000     0.625980000000     0.208570000000    -0.0198493  
C77      C      0.526760000000     0.539710000000     0.216810000000    -0.0195974  
C78      C      0.546340000000     0.563940000000     0.258070000000     0.0155861  
C79      C      0.589080000000     0.611380000000     0.254150000000     0.0123196  
C80      C      0.617820000000     0.638250000000     0.290150000000    -0.0642426  
C81      C      0.622320000000     0.633340000000     0.373070000000    -0.0203837  
C82      C      0.526200000000     0.543830000000     0.297050000000    -0.0671194  
C83      C      0.599120000000     0.616230000000     0.329760000000     0.0119395  
C84      C      0.552950000000     0.572040000000     0.332480000000     0.0148272  
C85      C      0.674530000000     0.775740000000     0.460240000000    -0.0215289  
C86      C      0.578710000000     0.890150000000     0.454880000000    -0.0223906  
C87      C      0.669420000000     0.941240000000     0.464160000000    -0.0240059  
C88      C      0.653880000000     0.889080000000     0.450200000000     0.012092   
C89      C      0.602310000000     0.861210000000     0.442910000000     0.0135805  
C90      C      0.577170000000     0.809090000000     0.435320000000    -0.0674351  
C91      C      0.585330000000     0.729960000000     0.442850000000    -0.0225092  
C92      C      0.682530000000     0.864980000000     0.452910000000    -0.064613   
C93      C      0.605650000000     0.785250000000     0.437380000000     0.0138079  
C94      C      0.656900000000     0.812010000000     0.446880000000     0.010305   
C95      C      0.597690000000     0.241480000000     0.612790000000    -0.0175841  
C96      C      0.541200000000     0.381720000000     0.540780000000    -0.0227592  
C97      C      0.572570000000     0.400660000000     0.613800000000    -0.0206302  
C98      C      0.575160000000     0.355910000000     0.599090000000     0.00731719 
C99      C      0.559350000000     0.347790000000     0.556950000000     0.0148977  
C100     C      0.561150000000     0.311390000000     0.533870000000    -0.0696338  
C101     C      0.578470000000     0.238780000000     0.537200000000    -0.0166036  
C102     C      0.589870000000     0.323670000000     0.621390000000    -0.0631942  
C103     C      0.577370000000     0.281150000000     0.555340000000     0.014144   
C104     C      0.589610000000     0.284920000000     0.598200000000     0.00842181 
C105     C      0.540570000000     0.079270000000     0.862800000000    -0.020349   
C106     C      0.546810000000     0.977320000000     0.717980000000    -0.0215572  
C107     C      0.568280000000     0.065770000000     0.706380000000    -0.017647   
C108     C      0.554360000000     0.049480000000     0.750510000000     0.0106887  
C109     C      0.544440000000     0.999990000000     0.757790000000     0.0137159  
C110     C      0.536130000000     0.978330000000     0.798640000000    -0.0653929  
C111     C      0.533900000000     0.996670000000     0.877150000000    -0.0206475  
C112     C      0.552720000000     0.078570000000     0.782680000000    -0.064388   
C113     C      0.536340000000     0.008180000000     0.831160000000     0.0141349  
C114     C      0.542520000000     0.056200000000     0.823170000000     0.0132808  
C115     C      0.542910000000     0.980280000000     0.209840000000    -0.0203794  
C116     C      0.512790000000     0.039220000000     0.367700000000    -0.0170072  
C117     C      0.545120000000     0.981000000000     0.374060000000    -0.0188245  
C118     C      0.537990000000     0.992960000000     0.328700000000     0.0129327  
C119     C      0.522100000000     0.028150000000     0.325660000000     0.0132217  
C120     C      0.518260000000     0.050470000000     0.286980000000    -0.0654947  
C121     C      0.528060000000     0.051760000000     0.206570000000    -0.0205954  
C122     C      0.546270000000     0.974440000000     0.292170000000    -0.0642971  
C123     C      0.528770000000     0.033800000000     0.250840000000     0.0152565  
C124     C      0.540100000000     0.995140000000     0.253060000000     0.0127399  
C125     C      0.530230000000     0.862660000000     0.962720000000    -0.0192006  
C126     C      0.648220000000     0.772550000000     0.941070000000    -0.0258717  
C127     C      0.558320000000     0.716440000000     0.936300000000    -0.0254104  
C128     C      0.570780000000     0.769980000000     0.935750000000     0.0158155  
C129     C      0.622170000000     0.802580000000     0.938690000000     0.0132441  
C130     C      0.642740000000     0.854760000000     0.946350000000    -0.0651332  
C131     C      0.620150000000     0.922300000000     0.966310000000    -0.0198726  
C132     C      0.537230000000     0.787020000000     0.940310000000    -0.0670838  
C133     C      0.608940000000     0.871970000000     0.951030000000     0.0122447  
C134     C      0.557590000000     0.838640000000     0.948330000000     0.0130881  
C135     C      0.476450000000     0.345020000000     0.109840000000    -0.0201726  
C136     C      0.551520000000     0.208230000000     0.102440000000    -0.0248938  
C137     C      0.462230000000     0.165530000000     0.113310000000    -0.0245193  
C138     C      0.485110000000     0.222460000000     0.113980000000     0.0109874  
C139     C      0.535970000000     0.246080000000     0.108150000000     0.0141019  
C140     C      0.565830000000     0.299110000000     0.104010000000    -0.067058   
C141     C      0.565340000000     0.383550000000     0.098460000000    -0.0199287  
C142     C      0.461420000000     0.251600000000     0.116110000000    -0.0644852  
C143     C      0.542390000000     0.327910000000     0.106070000000     0.0128673  
C144     C      0.491640000000     0.305250000000     0.112080000000     0.0100645  
C145     C      0.695310000000     0.236430000000     0.470140000000    -0.0187836  
C146     C      0.907230000000     0.360050000000     0.498890000000    -0.0193588  
C147     C      0.858980000000     0.401050000000     0.510420000000    -0.019568   
C148     C      0.826160000000     0.349640000000     0.492670000000     0.0132165  
C149     C      0.853240000000     0.325640000000     0.487200000000     0.011866   
C150     C      0.829150000000     0.274040000000     0.476370000000    -0.0647795  
C151     C      0.742110000000     0.192610000000     0.465240000000    -0.0182393  
C152     C      0.773960000000     0.324200000000     0.485900000000    -0.0653741  
C153     C      0.776750000000     0.248260000000     0.470410000000     0.0126845  
C154     C      0.750020000000     0.272970000000     0.474180000000     0.0136935  
C155     C      0.405350000000     0.855780000000     0.573680000000    -0.0212112  
C156     C      0.206680000000     0.745770000000     0.632100000000    -0.0210237  
C157     C      0.240480000000     0.693700000000     0.612050000000    -0.023083   
C158     C      0.279390000000     0.748520000000     0.610420000000     0.0168892  
C159     C      0.261020000000     0.778340000000     0.623530000000     0.0128955  
C160     C      0.290990000000     0.831980000000     0.623730000000    -0.0643822  
C161     C      0.378470000000     0.909010000000     0.604580000000    -0.0223354  
C162     C      0.326910000000     0.770350000000     0.593770000000    -0.0654289  
C163     C      0.339540000000     0.853860000000     0.608670000000     0.012759   
C164     C      0.356040000000     0.823770000000     0.592610000000     0.0145784  
C165     C      0.669330000000     0.473430000000     0.534170000000    -0.0282271  
C166     C      0.881340000000     0.576740000000     0.531470000000    -0.017166   
C167     C      0.845580000000     0.512670000000     0.587700000000    -0.0173234  
C168     C      0.805640000000     0.513570000000     0.559790000000     0.0136276  
C169     C      0.826060000000     0.549370000000     0.527410000000     0.0120827  
C170     C      0.795900000000     0.557570000000     0.496940000000    -0.0649347  
C171     C      0.704150000000     0.532290000000     0.475540000000    -0.0205248  
C172     C      0.753820000000     0.485140000000     0.564220000000    -0.0670912  
C173     C      0.744050000000     0.528640000000     0.501170000000     0.0118684  
C174     C      0.723840000000     0.494200000000     0.534190000000     0.0193635  
C175     C      0.428330000000     0.628540000000     0.553670000000    -0.0212025  
C176     C      0.218230000000     0.545900000000     0.549920000000    -0.0227195  
C177     C      0.265010000000     0.628260000000     0.513920000000    -0.0227376  
C178     C      0.299140000000     0.611720000000     0.534390000000     0.0137328  
C179     C      0.272610000000     0.565310000000     0.555480000000     0.0128481  
C180     C      0.296800000000     0.542070000000     0.577780000000    -0.0652261  
C181     C      0.384010000000     0.550130000000     0.595190000000    -0.0207288  
C182     C      0.351200000000     0.636540000000     0.533090000000    -0.0672702  
C183     C      0.349210000000     0.567540000000     0.577190000000     0.0126376  
C184     C      0.375180000000     0.612940000000     0.554660000000     0.0144396  
C185     C      0.035610000000     0.602180000000     0.898930000000    -0.0195327  
C186     C      0.043000000000     0.539170000000     0.735000000000    -0.0191774  
C187     C      0.039400000000     0.617350000000     0.734750000000    -0.0194405  
C188     C      0.039800000000     0.597570000000     0.778850000000     0.0116539  
C189     C      0.042100000000     0.553280000000     0.778360000000     0.0143121  
C190     C      0.041920000000     0.526190000000     0.815260000000    -0.066947   
C191     C      0.039970000000     0.524610000000     0.896150000000    -0.0210266  
C192     C      0.037120000000     0.617150000000     0.817200000000    -0.0639599  
C193     C      0.039290000000     0.545610000000     0.853250000000     0.0150693  
C194     C      0.036920000000     0.589820000000     0.854450000000     0.0117157  
C195     C      0.982820000000     0.488040000000     0.237370000000    -0.0196108  
C196     C      0.044010000000     0.593100000000     0.393510000000    -0.0194895  
C197     C      0.009440000000     0.501110000000     0.399000000000    -0.0190985  
C198     C      0.005970000000     0.516910000000     0.354760000000     0.0141964  
C199     C      0.024870000000     0.569110000000     0.351600000000     0.0142504  
C200     C      0.027450000000     0.593350000000     0.312400000000    -0.0651056  
C201     C      0.012140000000     0.579090000000     0.231970000000    -0.0185288  
C202     C      0.990040000000     0.486320000000     0.319030000000    -0.0655791  
C203     C      0.010850000000     0.562600000000     0.276690000000     0.0148598  
C204     C      0.993320000000     0.510660000000     0.279820000000     0.0144494  
C205     C      0.859800000000     0.396140000000     0.988970000000    -0.018837   
C206     C      0.745600000000     0.178640000000     0.990300000000    -0.0196581  
C207     C      0.701860000000     0.222730000000     0.007150000000    -0.0274789  
C208     C      0.753480000000     0.259570000000     0.995450000000     0.0166609  
C209     C      0.779340000000     0.235180000000     0.986890000000     0.0104353  
C210     C      0.830670000000     0.263380000000     0.978460000000    -0.0643329  
C211     C      0.908290000000     0.356270000000     0.976260000000    -0.0219017  
C212     C      0.776220000000     0.312610000000     0.994610000000    -0.0660511  
C213     C      0.853890000000     0.317040000000     0.978350000000     0.0111668  
C214     C      0.826790000000     0.340520000000     0.985560000000     0.0124224  
C215     C      0.194210000000     0.698430000000     0.166950000000    -0.0252303  
C216     C      0.370000000000     0.831510000000     0.080080000000    -0.0189379  
C217     C      0.342130000000     0.876420000000     0.122170000000    -0.0205533  
C218     C      0.310350000000     0.819750000000     0.128320000000     0.0128387  
C219     C      0.327680000000     0.795070000000     0.104980000000     0.0142945  
C220     C      0.304880000000     0.742030000000     0.104680000000    -0.0667937  
C221     C      0.228870000000     0.658510000000     0.128860000000    -0.0257631  
C222     C      0.267130000000     0.791540000000     0.151710000000    -0.0636668  
C223     C      0.262660000000     0.714270000000     0.128370000000     0.0199204  
C224     C      0.243520000000     0.737860000000     0.150700000000     0.013911   
C225     C      0.852470000000     0.517080000000     0.052210000000    -0.0194398  
C226     C      0.739060000000     0.597650000000     0.967980000000    -0.0175871  
C227     C      0.693970000000     0.508170000000     0.988960000000    -0.0234341  
C228     C      0.748090000000     0.529140000000     0.995650000000     0.0211804  
C229     C      0.774730000000     0.580170000000     0.983650000000     0.00981078 
C230     C      0.827100000000     0.609150000000     0.991690000000    -0.0601349  
C231     C      0.903990000000     0.604870000000     0.027400000000    -0.019512   
C232     C      0.770800000000     0.504740000000     0.017380000000    -0.0706219  
C233     C      0.850280000000     0.584080000000     0.013030000000     0.00942763 
C234     C      0.822130000000     0.533610000000     0.026170000000     0.0173541  
C235     C      0.378450000000     0.555230000000     0.085140000000    -0.0173923  
C236     C      0.239860000000     0.610190000000     0.007870000000    -0.0231938  
C237     C      0.208660000000     0.543390000000     0.062350000000    -0.020611   
C238     C      0.261450000000     0.561580000000     0.055830000000     0.0118901  
C239     C      0.279870000000     0.599190000000     0.024600000000     0.0105363  
C240     C      0.329850000000     0.621350000000     0.012960000000    -0.0676948  
C241     C      0.412770000000     0.619180000000     0.028650000000    -0.0202055  
C242     C      0.291030000000     0.544730000000     0.077710000000    -0.0677264  
C243     C      0.359660000000     0.603870000000     0.034750000000     0.0112942  
C244     C      0.340530000000     0.567000000000     0.066530000000     0.0126331  
C245     C      0.759000000000     0.708150000000     0.626540000000    -0.018342   
C246     C      0.878460000000     0.922770000000     0.629640000000    -0.0195365  
C247     C      0.922600000000     0.877570000000     0.618740000000    -0.0189931  
C248     C      0.871900000000     0.841840000000     0.633740000000     0.0120443  
C249     C      0.846610000000     0.867660000000     0.639760000000     0.0120586  
C250     C      0.794880000000     0.841420000000     0.644610000000    -0.0657765  
C251     C      0.715070000000     0.753960000000     0.635760000000    -0.0203337  
C252     C      0.846780000000     0.788450000000     0.632630000000    -0.0650059  
C253     C      0.769690000000     0.788120000000     0.642880000000     0.0131744  
C254     C      0.794940000000     0.762180000000     0.637250000000     0.0122036  
C255     C      0.213880000000     0.249730000000     0.563410000000    -0.0195758  
C256     C      0.363820000000     0.438400000000     0.499780000000    -0.0187543  
C257     C      0.373110000000     0.416340000000     0.573250000000    -0.0201045  
C258     C      0.322510000000     0.381930000000     0.556090000000     0.0142328  
C259     C      0.316430000000     0.392790000000     0.513950000000     0.00938615 
C260     C      0.273540000000     0.358420000000     0.489520000000    -0.0632179  
C261     C      0.193910000000     0.266280000000     0.491080000000    -0.0188051  
C262     C      0.288040000000     0.337270000000     0.575900000000    -0.0691423  
C263     C      0.238270000000     0.312910000000     0.509780000000     0.00976168 
C264     C      0.246620000000     0.303100000000     0.551680000000     0.0138449  
C265     C      0.756700000000     0.091460000000     0.572940000000    -0.0216457  
C266     C      0.841090000000     0.980170000000     0.509780000000    -0.0239337  
C267     C      0.881110000000     0.069480000000     0.488960000000    -0.0248323  
C268     C      0.838520000000     0.055870000000     0.515500000000     0.0115078  
C269     C      0.816120000000     0.005110000000     0.528160000000     0.0108406  
C270     C      0.777410000000     0.984250000000     0.556490000000    -0.0671839  
C271     C      0.719420000000     0.003780000000     0.597300000000    -0.0215035  
C272     C      0.822840000000     0.088340000000     0.529400000000    -0.0661807  
C273     C      0.762050000000     0.016940000000     0.570770000000     0.0134273  
C274     C      0.783750000000     0.067350000000     0.557230000000     0.017121   
C275     C      0.216610000000     0.039580000000     0.578670000000    -0.019271   
C276     C      0.380240000000     0.044520000000     0.502210000000    -0.0167923  
C277     C      0.383180000000     0.041400000000     0.579150000000    -0.0169499  
C278     C      0.335300000000     0.036010000000     0.562220000000     0.0110986  
C279     C      0.335340000000     0.041580000000     0.518620000000     0.0126298  
C280     C      0.300010000000     0.050140000000     0.496090000000    -0.0670726  
C281     C      0.227750000000     0.066550000000     0.504700000000    -0.0200257  
C282     C      0.296680000000     0.032700000000     0.585150000000    -0.0660384  
C283     C      0.263080000000     0.049650000000     0.519310000000     0.0116303  
C284     C      0.259620000000     0.038290000000     0.562200000000     0.0118172  
C285     C      0.049290000000     0.728620000000     0.482910000000    -0.0205612  
C286     C      0.130030000000     0.943650000000     0.472220000000    -0.0252224  
C287     C      0.039720000000     0.891120000000     0.463550000000    -0.0211757  
C288     C      0.063250000000     0.859170000000     0.465860000000     0.0146459  
C289     C      0.114680000000     0.888530000000     0.471610000000     0.0144898  
C290     C      0.144370000000     0.865670000000     0.480000000000    -0.0648996  
C291     C      0.139910000000     0.777380000000     0.494270000000    -0.0219342  
C292     C      0.038530000000     0.805970000000     0.467280000000    -0.065936   
C293     C      0.119410000000     0.811850000000     0.481720000000     0.0122184  
C294     C      0.067880000000     0.783310000000     0.475180000000     0.0125611  
C295     C      0.016670000000     0.207850000000     0.590420000000    -0.0192327  
C296     C      0.097000000000     0.414950000000     0.629890000000    -0.0201441  
C297     C      0.005970000000     0.364260000000     0.626490000000    -0.0196552  
C298     C      0.028050000000     0.331270000000     0.624320000000     0.0128659  
C299     C      0.079820000000     0.359590000000     0.628810000000     0.0113868  
C300     C      0.109170000000     0.336630000000     0.626660000000    -0.0653924  
C301     C      0.105770000000     0.251820000000     0.610350000000    -0.02143    
C302     C      0.003180000000     0.280010000000     0.612920000000    -0.0656888  
C303     C      0.083880000000     0.284390000000     0.617630000000     0.0134808  
C304     C      0.032660000000     0.257850000000     0.608710000000     0.013483   
C305     C      0.994930000000     0.052970000000     0.705540000000    -0.0211773  
C306     C      0.101790000000     0.110140000000     0.865020000000    -0.0201049  
C307     C      0.014700000000     0.088990000000     0.864060000000    -0.0213302  
C308     C      0.028750000000     0.085340000000     0.821440000000     0.014741   
C309     C      0.077350000000     0.094430000000     0.822350000000     0.0113513  
C310     C      0.096400000000     0.085330000000     0.787110000000    -0.0647488  
C311     C      0.075180000000     0.056030000000     0.709540000000    -0.0167179  
C312     C      0.998150000000     0.071330000000     0.784440000000    -0.0683225  
C313     C      0.064890000000     0.069060000000     0.750550000000     0.0108168  
C314     C      0.018030000000     0.064510000000     0.748790000000     0.0157745  
C315     C      0.089610000000     0.115650000000     0.210780000000    -0.0221851  
C316     C      0.002090000000     0.002070000000     0.360620000000    -0.0219619  
C317     C      0.037600000000     0.093980000000     0.363820000000    -0.0193326  
C318     C      0.044710000000     0.079710000000     0.322240000000     0.0123928  
C319     C      0.024600000000     0.027480000000     0.320140000000     0.0139607  
C320     C      0.027460000000     0.005090000000     0.283640000000    -0.0653714  
C321     C      0.054470000000     0.024250000000     0.206140000000    -0.0230226  
C322     C      0.068890000000     0.112520000000     0.288420000000    -0.0658198  
C323     C      0.051590000000     0.038030000000     0.249600000000     0.0146823  
C324     C      0.071770000000     0.090250000000     0.252080000000     0.0142972  
C325     C      0.757520000000     0.720350000000     0.043290000000    -0.0251906  
C326     C      0.835420000000     0.935700000000     0.032920000000    -0.0234386  
C327     C      0.860560000000     0.901670000000     0.978720000000    -0.016769   
C328     C      0.825710000000     0.859920000000     0.006700000000     0.0124585  
C329     C      0.810640000000     0.879190000000     0.037450000000     0.0164422  
C330     C      0.779560000000     0.847450000000     0.069290000000    -0.0642994  
C331     C      0.728930000000     0.753150000000     0.095870000000    -0.0231362  
C332     C      0.811570000000     0.808190000000     0.006410000000    -0.0659836  
C333     C      0.764870000000     0.795490000000     0.068680000000     0.0130016  
C334     C      0.780890000000     0.776570000000     0.038390000000     0.016381   
C335     C      0.354280000000     0.427170000000     0.003750000000    -0.0242799  
C336     C      0.216430000000     0.222810000000     0.052100000000    -0.0164851  
C337     C      0.186670000000     0.282430000000     0.058210000000    -0.0211588  
C338     C      0.236980000000     0.308100000000     0.040000000000     0.0118874  
C339     C      0.253640000000     0.273970000000     0.036470000000     0.00723059 
C340     C      0.300340000000     0.288920000000     0.020550000000    -0.0638431  
C341     C      0.382790000000     0.367120000000     0.995820000000    -0.0171784  
C342     C      0.266710000000     0.359540000000     0.028280000000    -0.0674839  
C343     C      0.329970000000     0.340290000000     0.008600000000     0.00888738 
C344     C      0.313640000000     0.374610000000     0.012640000000     0.0134962  
C345     C      0.669530000000     0.986670000000     0.128560000000    -0.0199176  
C346     C      0.880990000000     0.085730000000     0.123320000000    -0.0236785  
C347     C      0.841290000000     0.996030000000     0.143770000000    -0.0213727  
C348     C      0.804290000000     0.013990000000     0.141290000000     0.0114116  
C349     C      0.827530000000     0.065380000000     0.130430000000     0.0152487  
C350     C      0.800420000000     0.090550000000     0.121880000000    -0.0662502  
C351     C      0.711260000000     0.077430000000     0.111200000000    -0.0207039  
C352     C      0.751950000000     0.984730000000     0.143450000000    -0.0642354  
C353     C      0.748350000000     0.061490000000     0.124330000000     0.0152145  
C354     C      0.724680000000     0.009890000000     0.134540000000     0.0119552  
C355     C      0.388100000000     0.092190000000     0.985450000000    -0.019268   
C356     C      0.175660000000     0.008640000000     0.985900000000    -0.0181538  
C357     C      0.227480000000     0.098840000000     0.001980000000    -0.0244928  
C358     C      0.259090000000     0.077330000000     0.992430000000     0.0164525  
C359     C      0.230210000000     0.025270000000     0.986250000000     0.0116501  
C360     C      0.252940000000     0.995430000000     0.983580000000    -0.0631621  
C361     C      0.339650000000     0.999450000000     0.987770000000    -0.0195251  
C362     C      0.311410000000     0.103250000000     0.991430000000    -0.0668741  
C363     C      0.305780000000     0.021250000000     0.984840000000     0.0129788  
C364     C      0.333820000000     0.073930000000     0.986300000000     0.0147178  
C365     C      0.978990000000     0.864070000000     0.020670000000    -0.0197053  
C366     C      0.035530000000     0.737030000000     0.114660000000    -0.0223547  
C367     C      0.043770000000     0.740400000000     0.038600000000    -0.0229048  
C368     C      0.019760000000     0.769040000000     0.050230000000     0.014997   
C369     C      0.015390000000     0.767740000000     0.093460000000     0.0135101  
C370     C      0.996640000000     0.795200000000     0.112110000000    -0.0652356  
C371     C      0.970050000000     0.863170000000     0.096150000000    -0.0187684  
C372     C      0.005390000000     0.797220000000     0.023190000000    -0.0696474  
C373     C      0.982550000000     0.824010000000     0.084910000000     0.0131914  
C374     C      0.986920000000     0.824610000000     0.041680000000     0.014921   
C375     C      0.065770000000     0.382500000000     0.075630000000    -0.0158631  
C376     C      0.972450000000     0.198520000000     0.983800000000    -0.0216165  
C377     C      0.059790000000     0.251970000000     0.974070000000    -0.0262239  
C378     C      0.041730000000     0.278720000000     0.999500000000     0.0190548  
C379     C      0.990760000000     0.247940000000     0.004550000000     0.0095304  
C380     C      0.965040000000     0.261310000000     0.031240000000    -0.0652025  
C381     C      0.976010000000     0.330740000000     0.082630000000    -0.0215162  
C382     C      0.070240000000     0.323860000000     0.022020000000    -0.0676575  
C383     C      0.993450000000     0.307050000000     0.053130000000     0.0120168  
C384     C      0.044660000000     0.336940000000     0.049030000000     0.0100413  
Co1      Co     0.027360000000     0.123290000000     0.074660000000     0.930085   
Co2      Co     0.024220000000     0.015950000000     0.989880000000     1.16011    
Co3      Co     0.105750000000     0.127320000000     0.014770000000     1.09071    
Co4      Co     0.984470000000     0.029480000000     0.077510000000     1.0585     
Co5      Co     0.096090000000     0.087090000000     0.482680000000     1.0726     
Co6      Co     0.993700000000     0.070430000000     0.558640000000     1.09116    
Co7      Co     0.996940000000     0.983650000000     0.510590000000     1.07103    
Co8      Co     0.104820000000     0.094350000000     0.583710000000     1.1033     
Co9      Co     0.057640000000     0.498350000000     0.039660000000     1.11973    
Co10     Co     0.044840000000     0.599010000000     0.096510000000     1.09315    
Co11     Co     0.965950000000     0.481130000000     0.090440000000     1.10538    
Co12     Co     0.093530000000     0.617610000000     0.034750000000     0.878874   
Co13     Co     0.060520000000     0.505560000000     0.538490000000     0.985445   
Co14     Co     0.041060000000     0.625820000000     0.581730000000     1.07434    
Co15     Co     0.985080000000     0.505380000000     0.603270000000     1.13564    
Co16     Co     0.110520000000     0.604740000000     0.534740000000     1.02759    
Co17     Co     0.483960000000     0.033420000000     0.067650000000     1.08643    
Co18     Co     0.587910000000     0.045940000000     0.015640000000     1.14348    
Co19     Co     0.540970000000     0.097130000000     0.012980000000     0.783291   
Co20     Co     0.515620000000     0.951680000000     0.066420000000     1.12852    
Co21     Co     0.537420000000     0.063850000000     0.596320000000     1.09578    
Co22     Co     0.612670000000     0.041270000000     0.515010000000     1.07239    
Co23     Co     0.543680000000     0.094340000000     0.497070000000     1.24283    
Co24     Co     0.560280000000     0.975720000000     0.565310000000     0.88689    
Co25     Co     0.555590000000     0.495910000000     0.015270000000     1.09027    
Co26     Co     0.566910000000     0.632920000000     0.060820000000     0.939266   
Co27     Co     0.491970000000     0.511210000000     0.081580000000     1.11854    
Co28     Co     0.603530000000     0.612710000000     0.003290000000     1.0239     
Co29     Co     0.536700000000     0.520230000000     0.500410000000     1.09376    
Co30     Co     0.569720000000     0.642650000000     0.563710000000     1.11868    
Co31     Co     0.531390000000     0.530240000000     0.598820000000     1.07245    
Co32     Co     0.645820000000     0.617350000000     0.525080000000     1.05702    
H1       H      0.566440000000     0.514260000000     0.879460000000     0.0480228  
H2       H      0.554120000000     0.629640000000     0.887550000000     0.0528822  
H3       H      0.531990000000     0.649660000000     0.798960000000     0.0439911  
H4       H      0.560130000000     0.501880000000     0.791130000000     0.0438658  
H5       H      0.616400000000     0.572140000000     0.719450000000     0.0466214  
H6       H      0.522790000000     0.629130000000     0.704120000000     0.0445125  
H7       H      0.498070000000     0.478720000000     0.870500000000     0.0408162  
H8       H      0.486240000000     0.586870000000     0.879710000000     0.0416778  
H9       H      0.588800000000     0.672910000000     0.719600000000     0.0401303  
H10      H      0.551670000000     0.525520000000     0.702660000000     0.032394   
H11      H      0.486960000000     0.529350000000     0.211100000000     0.0403455  
H12      H      0.592000000000     0.658820000000     0.200570000000     0.0450622  
H13      H      0.652710000000     0.674030000000     0.287500000000     0.0439618  
H14      H      0.491480000000     0.507850000000     0.299730000000     0.0441098  
H15      H      0.505610000000     0.564720000000     0.381090000000     0.0473929  
H16      H      0.656250000000     0.629810000000     0.378270000000     0.0435257  
H17      H      0.531250000000     0.505850000000     0.214910000000     0.0482865  
H18      H      0.635390000000     0.634430000000     0.200520000000     0.042755   
H19      H      0.630970000000     0.672920000000     0.378280000000     0.0394581  
H20      H      0.529390000000     0.520190000000     0.384900000000     0.0348419  
H21      H      0.689800000000     0.970130000000     0.439210000000     0.0490143  
H22      H      0.559760000000     0.897750000000     0.426970000000     0.0434602  
H23      H      0.536640000000     0.787060000000     0.432780000000     0.0441843  
H24      H      0.721690000000     0.885440000000     0.463320000000     0.0426728  
H25      H      0.697000000000     0.773340000000     0.435600000000     0.0393827  
H26      H      0.551840000000     0.713120000000     0.462330000000     0.0512588  
H27      H      0.692420000000     0.949900000000     0.494250000000     0.0453499  
H28      H      0.552090000000     0.869160000000     0.480180000000     0.0479448  
H29      H      0.575780000000     0.711310000000     0.411720000000     0.0430844  
H30      H      0.696150000000     0.787070000000     0.491050000000     0.0425618  
H31      H      0.610290000000     0.431660000000     0.624460000000     0.0435896  
H32      H      0.560700000000     0.402550000000     0.511900000000     0.0438478  
H33      H      0.549360000000     0.306030000000     0.500740000000     0.0433209  
H34      H      0.600080000000     0.327970000000     0.654790000000     0.0427997  
H35      H      0.637090000000     0.255980000000     0.624390000000     0.0413699  
H36      H      0.541750000000     0.214110000000     0.520280000000     0.0423849  
H37      H      0.545610000000     0.388690000000     0.639180000000     0.0386382  
H38      H      0.499950000000     0.359640000000     0.534400000000     0.0436446  
H39      H      0.609790000000     0.253060000000     0.515610000000     0.0382077  
H40      H      0.570970000000     0.217800000000     0.637260000000     0.0384508  
H41      H      0.607700000000     0.097670000000     0.705540000000     0.0462646  
H42      H      0.574990000000     0.964920000000     0.721700000000     0.0414811  
H43      H      0.530930000000     0.940670000000     0.804990000000     0.0449477  
H44      H      0.560140000000     0.117100000000     0.776680000000     0.0438669  
H45      H      0.575250000000     0.116820000000     0.867800000000     0.0428302  
H46      H      0.497610000000     0.962200000000     0.884510000000     0.0458513  
H47      H      0.542110000000     0.076730000000     0.690130000000     0.0223541  
H48      H      0.509220000000     0.945240000000     0.708290000000     0.0445685  
H49      H      0.565980000000     0.991800000000     0.888490000000     0.0528382  
H50      H      0.506590000000     0.082820000000     0.862190000000     0.0445397  
H51      H      0.584970000000     0.992570000000     0.381570000000     0.0484059  
H52      H      0.534590000000     0.081130000000     0.372700000000     0.0418794  
H53      H      0.507680000000     0.079440000000     0.285130000000     0.0449557  
H54      H      0.556930000000     0.945540000000     0.294030000000     0.0442669  
H55      H      0.580500000000     0.985580000000     0.205280000000     0.039826   
H56      H      0.491430000000     0.048980000000     0.197820000000     0.0485761  
H57      H      0.519820000000     0.939900000000     0.381370000000     0.04089    
H58      H      0.472120000000     0.023840000000     0.370990000000     0.0439757  
H59      H      0.559650000000     0.091310000000     0.202010000000     0.0484306  
H60      H      0.512860000000     0.940200000000     0.204080000000     0.0452397  
H61      H      0.543680000000     0.700080000000     0.904540000000     0.0393276  
H62      H      0.666730000000     0.776720000000     0.911190000000     0.0446155  
H63      H      0.682720000000     0.879800000000     0.951460000000     0.0453807  
H64      H      0.497300000000     0.760600000000     0.941060000000     0.0434712  
H65      H      0.506900000000     0.866520000000     0.936340000000     0.043638   
H66      H      0.645440000000     0.932880000000     0.995160000000     0.0469153  
H67      H      0.530090000000     0.693930000000     0.960140000000     0.0573894  
H68      H      0.675840000000     0.784610000000     0.968470000000     0.0424885  
H69      H      0.636360000000     0.952090000000     0.941100000000     0.04811    
H70      H      0.507140000000     0.840380000000     0.989690000000     0.0434969  
H71      H      0.431860000000     0.149050000000     0.088220000000     0.0444734  
H72      H      0.568830000000     0.215230000000     0.071430000000     0.0457858  
H73      H      0.605200000000     0.317040000000     0.097840000000     0.0432764  
H74      H      0.421420000000     0.233450000000     0.119350000000     0.0435717  
H75      H      0.446970000000     0.336100000000     0.084390000000     0.0396847  
H76      H      0.593950000000     0.404990000000     0.123860000000     0.0454239  
H77      H      0.448160000000     0.148140000000     0.144660000000     0.0462494  
H78      H      0.577830000000     0.209920000000     0.128690000000     0.0467182  
H79      H      0.581900000000     0.393990000000     0.066960000000     0.0399282  
H80      H      0.463640000000     0.348250000000     0.140770000000     0.0418796  
H81      H      0.846100000000     0.403220000000     0.541690000000     0.0434549  
H82      H      0.920110000000     0.341980000000     0.524060000000     0.040468   
H83      H      0.849860000000     0.254330000000     0.474600000000     0.0432309  
H84      H      0.752790000000     0.342610000000     0.491420000000     0.0444201  
H85      H      0.677080000000     0.238220000000     0.498460000000     0.0453027  
H86      H      0.745550000000     0.180330000000     0.433900000000     0.0430519  
H87      H      0.860070000000     0.431020000000     0.488270000000     0.043581   
H88      H      0.930140000000     0.370490000000     0.470710000000     0.0422591  
H89      H      0.749790000000     0.171240000000     0.491180000000     0.0503221  
H90      H      0.678610000000     0.244170000000     0.440730000000     0.0400133  
H91      H      0.249630000000     0.673480000000     0.638020000000     0.0441169  
H92      H      0.200480000000     0.746470000000     0.666030000000     0.0399082  
H93      H      0.276780000000     0.855500000000     0.633920000000     0.043447   
H94      H      0.339960000000     0.746930000000     0.581190000000     0.0445422  
H95      H      0.433290000000     0.846570000000     0.588800000000     0.0408557  
H96      H      0.363180000000     0.929120000000     0.584270000000     0.0409126  
H97      H      0.236910000000     0.676350000000     0.581260000000     0.0566487  
H98      H      0.184550000000     0.758890000000     0.611850000000     0.0473199  
H99      H      0.391960000000     0.926440000000     0.636160000000     0.0431936  
H100     H      0.401810000000     0.850550000000     0.539000000000     0.0477909  
H101     H      0.842920000000     0.474890000000     0.586570000000     0.0416604  
H102     H      0.896730000000     0.570760000000     0.503060000000     0.0483451  
H103     H      0.812010000000     0.585930000000     0.471940000000     0.0430998  
H104     H      0.737720000000     0.458380000000     0.590260000000     0.0455007  
H105     H      0.649500000000     0.432430000000     0.526240000000     0.0414696  
H106     H      0.714340000000     0.572960000000     0.471200000000     0.034114   
H107     H      0.843740000000     0.522520000000     0.620490000000     0.0411276  
H108     H      0.896560000000     0.618000000000     0.536770000000     0.0415073  
H109     H      0.698110000000     0.514370000000     0.444450000000     0.04069    
H110     H      0.659120000000     0.478950000000     0.565540000000     0.0522672  
H111     H      0.267250000000     0.630070000000     0.479070000000     0.0448401  
H112     H      0.199480000000     0.510320000000     0.531410000000     0.0432473  
H113     H      0.275840000000     0.505640000000     0.593950000000     0.0434298  
H114     H      0.371960000000     0.671850000000     0.515360000000     0.0440606  
H115     H      0.438320000000     0.630430000000     0.520370000000     0.0536776  
H116     H      0.386680000000     0.551240000000     0.630200000000     0.0405877  
H117     H      0.273830000000     0.665580000000     0.526190000000     0.0453599  
H118     H      0.201710000000     0.539630000000     0.581230000000     0.0520564  
H119     H      0.371710000000     0.511600000000     0.583650000000     0.0415383  
H120     H      0.452210000000     0.665790000000     0.569300000000     0.0359139  
H121     H      0.073530000000     0.655100000000     0.729910000000     0.0413992  
H122     H      0.078680000000     0.540220000000     0.730110000000     0.0458114  
H123     H      0.043700000000     0.491590000000     0.814400000000     0.0444151  
H124     H      0.035280000000     0.651710000000     0.818050000000     0.0440178  
H125     H      0.068190000000     0.640320000000     0.906770000000     0.0446855  
H126     H      0.006100000000     0.486440000000     0.900300000000     0.0426733  
H127     H      0.004760000000     0.619200000000     0.727590000000     0.0425264  
H128     H      0.010110000000     0.500750000000     0.728360000000     0.045467   
H129     H      0.074860000000     0.522960000000     0.902350000000     0.044486   
H130     H      0.999670000000     0.600280000000     0.904400000000     0.0447125  
H131     H      0.032100000000     0.482040000000     0.401660000000     0.0451862  
H132     H      0.084700000000     0.621560000000     0.392970000000     0.0497115  
H133     H      0.042870000000     0.634190000000     0.309700000000     0.0461125  
H134     H      0.977090000000     0.445910000000     0.321550000000     0.0452338  
H135     H      0.007140000000     0.471740000000     0.232790000000     0.0498929  
H136     H      0.985520000000     0.593140000000     0.225130000000     0.0484806  
H137     H      0.971480000000     0.475920000000     0.411050000000     0.0447879  
H138     H      0.022390000000     0.610600000000     0.403310000000     0.0461718  
H139     H      0.050920000000     0.608670000000     0.224200000000     0.0553451  
H140     H      0.942520000000     0.458920000000     0.232710000000     0.0415992  
H141     H      0.674570000000     0.226590000000     0.985030000000     0.0448301  
H142     H      0.740570000000     0.160880000000     0.959270000000     0.049118   
H143     H      0.851730000000     0.244660000000     0.973680000000     0.0431676  
H144     H      0.756020000000     0.331350000000     0.002320000000     0.0411355  
H145     H      0.853840000000     0.416270000000     0.961050000000     0.0407563  
H146     H      0.931300000000     0.345630000000     0.997780000000     0.0440502  
H147     H      0.696450000000     0.228050000000     0.040360000000     0.0473153  
H148     H      0.760360000000     0.162020000000     0.015140000000     0.041746   
H149     H      0.920400000000     0.361240000000     0.943390000000     0.0399181  
H150     H      0.852430000000     0.408660000000     0.018600000000     0.0405519  
H151     H      0.361500000000     0.894710000000     0.152470000000     0.0467147  
H152     H      0.403350000000     0.827780000000     0.088920000000     0.0357374  
H153     H      0.318200000000     0.723210000000     0.085590000000     0.0452433  
H154     H      0.251770000000     0.810190000000     0.168500000000     0.0460007  
H155     H      0.198190000000     0.692260000000     0.201410000000     0.0447072  
H156     H      0.224050000000     0.642910000000     0.096920000000     0.0514294  
H157     H      0.319340000000     0.892760000000     0.108250000000     0.0454979  
H158     H      0.359840000000     0.825480000000     0.045770000000     0.0473971  
H159     H      0.244150000000     0.640220000000     0.151540000000     0.0424805  
H160     H      0.165670000000     0.710130000000     0.160270000000     0.0474656  
H161     H      0.675200000000     0.489150000000     0.018620000000     0.0501352  
H162     H      0.746330000000     0.631550000000     0.985640000000     0.0476441  
H163     H      0.848260000000     0.649310000000     0.983330000000     0.0433344  
H164     H      0.749080000000     0.465680000000     0.028730000000     0.043498   
H165     H      0.839410000000     0.507790000000     0.084950000000     0.0444938  
H166     H      0.927780000000     0.614910000000     0.999850000000     0.0488198  
H167     H      0.678870000000     0.480820000000     0.962620000000     0.0355067  
H168     H      0.741600000000     0.605780000000     0.933480000000     0.0435695  
H169     H      0.917140000000     0.638180000000     0.048060000000     0.0439614  
H170     H      0.851280000000     0.484010000000     0.037620000000     0.0429395  
H171     H      0.204000000000     0.549750000000     0.095520000000     0.0493655  
H172     H      0.251100000000     0.650410000000     0.013790000000     0.0417745  
H173     H      0.344690000000     0.650410000000     0.988350000000     0.0445495  
H174     H      0.276150000000     0.515560000000     0.102270000000     0.04361    
H175     H      0.386950000000     0.566030000000     0.118870000000     0.0413984  
H176     H      0.416970000000     0.610050000000     0.996280000000     0.0475084  
H177     H      0.185150000000     0.502420000000     0.054220000000     0.0358951  
H178     H      0.230980000000     0.601250000000     0.973820000000     0.041783   
H179     H      0.438070000000     0.660330000000     0.035280000000     0.0391496  
H180     H      0.365680000000     0.514220000000     0.081330000000     0.038648   
H181     H      0.927980000000     0.863780000000     0.588830000000     0.04347    
H182     H      0.858440000000     0.935330000000     0.606230000000     0.041334   
H183     H      0.774540000000     0.861640000000     0.645340000000     0.0421545  
H184     H      0.865770000000     0.768670000000     0.624370000000     0.043892   
H185     H      0.769310000000     0.698350000000     0.596980000000     0.0421171  
H186     H      0.695630000000     0.745960000000     0.665730000000     0.0404836  
H187     H      0.951860000000     0.882490000000     0.643300000000     0.0459111  
H188     H      0.889900000000     0.945640000000     0.658710000000     0.038607   
H189     H      0.700200000000     0.771250000000     0.611550000000     0.0452763  
H190     H      0.757300000000     0.682150000000     0.653040000000     0.0454647  
H191     H      0.391350000000     0.393910000000     0.583780000000     0.0452844  
H192     H      0.378220000000     0.428670000000     0.472740000000     0.0388895  
H193     H      0.269530000000     0.365060000000     0.456080000000     0.0437494  
H194     H      0.295490000000     0.327380000000     0.607710000000     0.0424054  
H195     H      0.236860000000     0.231300000000     0.570200000000     0.0448923  
H196     H      0.162340000000     0.273130000000     0.483140000000     0.045087   
H197     H      0.372450000000     0.438410000000     0.599730000000     0.0381122  
H198     H      0.357960000000     0.471060000000     0.491850000000     0.0442815  
H199     H      0.204530000000     0.253980000000     0.463110000000     0.0385453  
H200     H      0.192230000000     0.245840000000     0.591120000000     0.0385964  
H201     H      0.914980000000     0.103960000000     0.501730000000     0.0446974  
H202     H      0.850730000000     0.959360000000     0.534820000000     0.0479989  
H203     H      0.759820000000     0.944590000000     0.566530000000     0.0417822  
H204     H      0.839980000000     0.127830000000     0.518900000000     0.0435285  
H205     H      0.779500000000     0.118700000000     0.598320000000     0.04132    
H206     H      0.686460000000     0.967160000000     0.586670000000     0.0484423  
H207     H      0.872130000000     0.076280000000     0.455710000000     0.0430516  
H208     H      0.816780000000     0.954040000000     0.484250000000     0.03926    
H209     H      0.729740000000     0.000930000000     0.631070000000     0.0397872  
H210     H      0.747610000000     0.111040000000     0.546370000000     0.0579526  
H211     H      0.376980000000     0.007570000000     0.598510000000     0.0367023  
H212     H      0.369800000000     0.010070000000     0.483840000000     0.0448079  
H213     H      0.302590000000     0.059250000000     0.462640000000     0.0432889  
H214     H      0.296790000000     0.028480000000     0.619180000000     0.0429235  
H215     H      0.187700000000     0.000890000000     0.589350000000     0.0462834  
H216     H      0.248610000000     0.108140000000     0.497150000000     0.0443453  
H217     H      0.404300000000     0.076780000000     0.597840000000     0.0428666  
H218     H      0.401260000000     0.080100000000     0.483090000000     0.0370486  
H219     H      0.204300000000     0.044960000000     0.476950000000     0.0393362  
H220     H      0.229420000000     0.067750000000     0.604280000000     0.038534   
H221     H      0.013760000000     0.879960000000     0.489710000000     0.040526   
H222     H      0.149970000000     0.959720000000     0.502920000000     0.0431167  
H223     H      0.184390000000     0.888520000000     0.486480000000     0.0458249  
H224     H      0.998070000000     0.783220000000     0.464340000000     0.0425407  
H225     H      0.021730000000     0.714130000000     0.508100000000     0.0436993  
H226     H      0.164160000000     0.778020000000     0.469760000000     0.0475098  
H227     H      0.019450000000     0.887150000000     0.432520000000     0.0362179  
H228     H      0.153470000000     0.964550000000     0.445150000000     0.0398042  
H229     H      0.160410000000     0.788180000000     0.525540000000     0.0426339  
H230     H      0.032370000000     0.706940000000     0.453390000000     0.0449367  
H231     H      0.986410000000     0.356970000000     0.656310000000     0.0413365  
H232     H      0.117330000000     0.431480000000     0.660360000000     0.0400419  
H233     H      0.149640000000     0.358740000000     0.629770000000     0.0430498  
H234     H      0.963200000000     0.259180000000     0.605610000000     0.0427376  
H235     H      0.987610000000     0.176470000000     0.609560000000     0.0330819  
H236     H      0.134780000000     0.270850000000     0.586650000000     0.039674   
H237     H      0.980160000000     0.358220000000     0.598470000000     0.0446329  
H238     H      0.120810000000     0.435210000000     0.602780000000     0.0424389  
H239     H      0.120750000000     0.243240000000     0.640400000000     0.0416369  
H240     H      0.002950000000     0.206860000000     0.557050000000     0.0449522  
H241     H      0.982720000000     0.051540000000     0.873780000000     0.0475351  
H242     H      0.117010000000     0.085340000000     0.876660000000     0.0413131  
H243     H      0.133540000000     0.090170000000     0.788200000000     0.0429903  
H244     H      0.960640000000     0.065530000000     0.783570000000     0.0445855  
H245     H      0.959180000000     0.015880000000     0.704930000000     0.0385429  
H246     H      0.111010000000     0.087920000000     0.697950000000     0.0329283  
H247     H      0.005520000000     0.119810000000     0.865080000000     0.0420918  
H248     H      0.131470000000     0.151040000000     0.864880000000     0.0421702  
H249     H      0.075740000000     0.019750000000     0.712210000000     0.0438812  
H250     H      0.989270000000     0.084590000000     0.693030000000     0.0460736  
H251     H      0.011990000000     0.109630000000     0.360870000000     0.0454081  
H252     H      0.960840000000     0.977220000000     0.356220000000     0.0417251  
H253     H      0.010910000000     0.964190000000     0.281520000000     0.0453757  
H254     H      0.083770000000     0.153240000000     0.289990000000     0.0448168  
H255     H      0.073220000000     0.140240000000     0.202190000000     0.0497386  
H256     H      0.082670000000     0.012090000000     0.205190000000     0.0455443  
H257     H      0.074660000000     0.121910000000     0.378470000000     0.0407389  
H258     H      0.019830000000     0.980110000000     0.373820000000     0.0472442  
H259     H      0.016860000000     0.993700000000     0.194530000000     0.0547191  
H260     H      0.131180000000     0.138260000000     0.211590000000     0.044205   
H261     H      0.841450000000     0.900760000000     0.947660000000     0.0383662  
H262     H      0.808090000000     0.947360000000     0.021090000000     0.0413765  
H263     H      0.767460000000     0.862370000000     0.093250000000     0.0436116  
H264     H      0.823810000000     0.793320000000     0.982510000000     0.0455572  
H265     H      0.741710000000     0.702510000000     0.012110000000     0.0562333  
H266     H      0.746690000000     0.754170000000     0.127630000000     0.0410951  
H267     H      0.893740000000     0.897650000000     0.974690000000     0.0448005  
H268     H      0.853330000000     0.953150000000     0.063550000000     0.0572532  
H269     H      0.694970000000     0.756250000000     0.098380000000     0.0473041  
H270     H      0.785360000000     0.710070000000     0.056650000000     0.0430222  
H271     H      0.159270000000     0.285770000000     0.036150000000     0.0403009  
H272     H      0.204570000000     0.194840000000     0.026440000000     0.0217494  
H273     H      0.313520000000     0.262240000000     0.018710000000     0.0408213  
H274     H      0.254660000000     0.386780000000     0.032310000000     0.0423314  
H275     H      0.345570000000     0.442260000000     0.973850000000     0.0425758  
H276     H      0.405690000000     0.356640000000     0.017900000000     0.0414869  
H277     H      0.188600000000     0.298490000000     0.089390000000     0.0401428  
H278     H      0.231860000000     0.211470000000     0.080400000000     0.0434647  
H279     H      0.384830000000     0.358330000000     0.962740000000     0.0391507  
H280     H      0.359630000000     0.451780000000     0.030620000000     0.0461262  
H281     H      0.827930000000     0.962360000000     0.123770000000     0.0416787  
H282     H      0.889470000000     0.102600000000     0.090920000000     0.0515349  
H283     H      0.818720000000     0.130120000000     0.111470000000     0.0440466  
H284     H      0.733210000000     0.943970000000     0.149520000000     0.0425729  
H285     H      0.654570000000     0.955130000000     0.105680000000     0.0462643  
H286     H      0.711810000000     0.103940000000     0.134320000000     0.0448815  
H287     H      0.848210000000     0.987130000000     0.177000000000     0.0434213  
H288     H      0.905040000000     0.114290000000     0.147500000000     0.0426259  
H289     H      0.718660000000     0.094960000000     0.078980000000     0.0505247  
H290     H      0.651310000000     0.972960000000     0.159200000000     0.0385131  
H291     H      0.233040000000     0.129870000000     0.979000000000     0.0380956  
H292     H      0.157780000000     0.996230000000     0.953910000000     0.0418408  
H293     H      0.230780000000     0.954300000000     0.981630000000     0.0452211  
H294     H      0.333690000000     0.144110000000     0.995540000000     0.0433441  
H295     H      0.403190000000     0.112300000000     0.955090000000     0.0436228  
H296     H      0.333330000000     0.976000000000     0.017180000000     0.0513433  
H297     H      0.235880000000     0.112760000000     0.034880000000     0.04763    
H298     H      0.156410000000     0.977990000000     0.009950000000     0.0417731  
H299     H      0.334030000000     0.976740000000     0.959490000000     0.0429988  
H300     H      0.408520000000     0.117320000000     0.012700000000     0.0437103  
H301     H      0.080250000000     0.766200000000     0.024300000000     0.0429725  
H302     H      0.068110000000     0.760840000000     0.136330000000     0.0447375  
H303     H      0.995300000000     0.795950000000     0.146010000000     0.0452103  
H304     H      0.010810000000     0.799900000000     0.989640000000     0.0446734  
H305     H      0.011140000000     0.888880000000     0.000740000000     0.0440278  
H306     H      0.930800000000     0.844880000000     0.105920000000     0.0454253  
H307     H      0.018050000000     0.709010000000     0.017040000000     0.0503523  
H308     H      0.005430000000     0.703900000000     0.131620000000     0.05299    
H309     H      0.996990000000     0.888430000000     0.121080000000     0.044106   
H310     H      0.943220000000     0.846500000000     0.001330000000     0.0341615  
H311     H      0.096700000000     0.258330000000     0.986530000000     0.0481438  
H312     H      0.945490000000     0.166120000000     0.003520000000     0.0529063  
H313     H      0.925360000000     0.236760000000     0.035630000000     0.0420325  
H314     H      0.110410000000     0.346930000000     0.019500000000     0.0415775  
H315     H      0.088630000000     0.379530000000     0.102850000000     0.0405231  
H316     H      0.944360000000     0.334150000000     0.067870000000     0.0458021  
H317     H      0.062300000000     0.265170000000     0.940600000000     0.0400078  
H318     H      0.953960000000     0.198480000000     0.952600000000     0.0391512  
H319     H      0.964930000000     0.308140000000     0.112560000000     0.0402172  
H320     H      0.088580000000     0.417160000000     0.055980000000     0.0266614  
N1       N      0.573480000000     0.603850000000     0.691910000000    -0.179634   
N2       N      0.527880000000     0.550560000000     0.899520000000    -0.1752     
N3       N      0.582580000000     0.597110000000     0.400410000000    -0.177227   
N4       N      0.558590000000     0.579840000000     0.187200000000    -0.177154   
N5       N      0.627300000000     0.727230000000     0.464200000000    -0.180098   
N6       N      0.621370000000     0.937710000000     0.470570000000    -0.158854   
N7       N      0.586690000000     0.212320000000     0.573940000000    -0.184973   
N8       N      0.553890000000     0.416500000000     0.575550000000    -0.178617   
N9       N      0.537830000000     0.042160000000     0.895360000000    -0.177155   
N10      N      0.562850000000     0.019970000000     0.687530000000    -0.179981   
N11      N      0.534540000000     0.015930000000     0.182360000000    -0.176485   
N12      N      0.530920000000     0.012340000000     0.396850000000    -0.185451   
N13      N      0.570570000000     0.912880000000     0.976190000000    -0.176934   
N14      N      0.606850000000     0.719890000000     0.946510000000    -0.160948   
N15      N      0.523010000000     0.392280000000     0.099510000000    -0.179924   
N16      N      0.504440000000     0.159060000000     0.103410000000    -0.156853   
N17      N      0.692370000000     0.186850000000     0.468200000000    -0.183315   
N18      N      0.908240000000     0.404990000000     0.514900000000    -0.179136   
N19      N      0.418650000000     0.908060000000     0.583310000000    -0.171641   
N20      N      0.194750000000     0.694300000000     0.620530000000    -0.170974   
N21      N      0.659460000000     0.502700000000     0.500460000000    -0.177174   
N22      N      0.891490000000     0.552500000000     0.568880000000    -0.18546    
N23      N      0.431850000000     0.587750000000     0.577650000000    -0.177638   
N24      N      0.215630000000     0.587310000000     0.526130000000    -0.164659   
N25      N      0.039370000000     0.561740000000     0.923340000000    -0.174641   
N26      N      0.039620000000     0.578670000000     0.708990000000    -0.180435   
N27      N      0.995940000000     0.532090000000     0.209040000000    -0.177468   
N28      N      0.035170000000     0.549650000000     0.421260000000    -0.179566   
N29      N      0.910230000000     0.402880000000     0.989840000000    -0.17904    
N30      N      0.698210000000     0.173260000000     0.002600000000    -0.159447   
N31      N      0.182230000000     0.652100000000     0.144100000000    -0.171807   
N32      N      0.378460000000     0.881300000000     0.092150000000    -0.175159   
N33      N      0.902810000000     0.561770000000     0.051620000000    -0.179451   
N34      N      0.689940000000     0.553310000000     0.977390000000    -0.177194   
N35      N      0.422010000000     0.587450000000     0.060200000000    -0.183805   
N36      N      0.197030000000     0.575040000000     0.032930000000    -0.181203   
N37      N      0.711340000000     0.707370000000     0.620450000000    -0.17857    
N38      N      0.921990000000     0.925290000000     0.611700000000    -0.179131   
N39      N      0.181280000000     0.228360000000     0.525620000000    -0.1812     
N40      N      0.397970000000     0.449500000000     0.537230000000    -0.181439   
N41      N      0.711700000000     0.047690000000     0.590230000000    -0.173246   
N42      N      0.885990000000     0.023660000000     0.492190000000    -0.177177   
N43      N      0.197850000000     0.056380000000     0.541560000000    -0.181491   
N44      N      0.409160000000     0.045890000000     0.540870000000    -0.18822    
N45      N      0.094460000000     0.726820000000     0.496870000000    -0.175133   
N46      N      0.082270000000     0.943360000000     0.468080000000    -0.175285   
N47      N      0.062820000000     0.205460000000     0.592880000000    -0.177629   
N48      N      0.049900000000     0.415780000000     0.625860000000    -0.182092   
N49      N      0.032460000000     0.049780000000     0.682240000000    -0.180021   
N50      N      0.060280000000     0.101970000000     0.890140000000    -0.183572   
N51      N      0.070960000000     0.072460000000     0.182300000000    -0.173374   
N52      N      0.014450000000     0.045280000000     0.387450000000    -0.177549   
N53      N      0.718510000000     0.707040000000     0.073590000000    -0.176637   
N54      N      0.872860000000     0.948120000000     0.001410000000    -0.181025   
N55      N      0.397960000000     0.421070000000     0.999290000000    -0.179444   
N56      N      0.174760000000     0.229300000000     0.063200000000    -0.184331   
N57      N      0.663440000000     0.029130000000     0.111290000000    -0.175816   
N58      N      0.886590000000     0.040520000000     0.127880000000    -0.163926   
N59      N      0.390130000000     0.044970000000     0.989210000000    -0.173494   
N60      N      0.176310000000     0.055270000000     0.997190000000    -0.176814   
N61      N      0.975810000000     0.891240000000     0.056120000000    -0.182399   
N62      N      0.051490000000     0.720200000000     0.079290000000    -0.163056   
N63      N      0.020900000000     0.380850000000     0.090370000000    -0.181721   
N64      N      0.019360000000     0.198560000000     0.977870000000    -0.171445   
O1       O      0.999250000000     0.134210000000     0.025330000000    -0.434164   
O2       O      0.954930000000     0.984650000000     0.989580000000    -0.483397   
O3       O      0.100150000000     0.114460000000     0.954890000000    -0.455709   
O4       O      0.933140000000     0.002550000000     0.116390000000    -0.395509   
O5       O      0.020970000000     0.061000000000     0.948890000000    -0.476901   
O6       O      0.960850000000     0.081830000000     0.096210000000    -0.46673    
O7       O      0.933350000000     0.020030000000     0.034380000000    -0.428598   
O8       O      0.072100000000     0.167540000000     0.996710000000    -0.421976   
O9       O      0.055300000000     0.114040000000     0.127380000000    -0.431966   
O10      O      0.094300000000     0.033650000000     0.982900000000    -0.438563   
O11      O      0.122000000000     0.145150000000     0.070260000000    -0.458409   
O12      O      0.970630000000     0.960530000000     0.072000000000    -0.41687    
O13      O      0.023760000000     0.967990000000     0.026460000000    -0.493045   
O14      O      0.090280000000     0.191070000000     0.069480000000    -0.395738   
O15      O      0.030360000000     0.033960000000     0.121010000000    -0.435395   
O16      O      0.140850000000     0.094150000000     0.026890000000    -0.459809   
O17      O      0.039280000000     0.067990000000     0.037460000000    -0.54277    
O18      O      0.042330000000     0.083770000000     0.450140000000    -0.439192   
O19      O      0.033700000000     0.139270000000     0.549450000000    -0.455805   
O20      O      0.934950000000     0.987270000000     0.502220000000    -0.428122   
O21      O      0.152620000000     0.150020000000     0.553540000000    -0.474697   
O22      O      0.969630000000     0.068570000000     0.502700000000    -0.438438   
O23      O      0.116000000000     0.156530000000     0.494700000000    -0.429553   
O24      O      0.088120000000     0.146450000000     0.599600000000    -0.43055    
O25      O      0.002960000000     0.000930000000     0.449890000000    -0.431944   
O26      O      0.153970000000     0.090050000000     0.509660000000    -0.453098   
O27      O      0.945750000000     0.000190000000     0.575550000000    -0.443109   
O28      O      0.048450000000     0.969230000000     0.514630000000    -0.447533   
O29      O      0.063790000000     0.044470000000     0.621750000000    -0.456895   
O30      O      0.011000000000     0.071900000000     0.618390000000    -0.44865    
O31      O      0.087950000000     0.021510000000     0.463600000000    -0.423384   
O32      O      0.131420000000     0.052720000000     0.571790000000    -0.439514   
O33      O      0.984530000000     0.958870000000     0.566110000000    -0.444187   
O34      O      0.048620000000     0.058530000000     0.534730000000    -0.52507    
O35      O      0.991530000000     0.443640000000     0.017060000000    -0.440318   
O36      O      0.057460000000     0.658970000000     0.117500000000    -0.42288    
O37      O      0.935590000000     0.521380000000     0.091600000000    -0.460106   
O38      O      0.050220000000     0.597210000000     0.987130000000    -0.420691   
O39      O      0.986910000000     0.593560000000     0.062140000000    -0.419833   
O40      O      0.057430000000     0.528970000000     0.983640000000    -0.436436   
O41      O      0.069290000000     0.664410000000     0.049780000000    -0.430297   
O42      O      0.940580000000     0.468080000000     0.034810000000    -0.469174   
O43      O      0.121250000000     0.542740000000     0.058870000000    -0.474818   
O44      O      0.006640000000     0.570840000000     0.144930000000    -0.421432   
O45      O      0.979160000000     0.424400000000     0.093050000000    -0.441016   
O46      O      0.143000000000     0.643330000000     0.079730000000    -0.44556    
O47      O      0.097880000000     0.603400000000     0.132450000000    -0.429175   
O48      O      0.058490000000     0.466190000000     0.090850000000    -0.452108   
O49      O      0.139120000000     0.598390000000     0.009970000000    -0.399754   
O50      O      0.987520000000     0.491430000000     0.148110000000    -0.452256   
O51      O      0.036680000000     0.541360000000     0.068290000000    -0.563895   
O52      O      0.991260000000     0.447390000000     0.535950000000    -0.420778   
O53      O      0.048820000000     0.648520000000     0.525780000000    -0.450045   
O54      O      0.945940000000     0.537150000000     0.609580000000    -0.466993   
O55      O      0.078650000000     0.595580000000     0.479410000000    -0.428238   
O56      O      0.974980000000     0.597190000000     0.563110000000    -0.472044   
O57      O      0.043500000000     0.513700000000     0.482720000000    -0.465242   
O58      O      0.127120000000     0.677880000000     0.526110000000    -0.379766   
O59      O      0.943060000000     0.474460000000     0.555880000000    -0.469715   
O60      O      0.131620000000     0.549130000000     0.531370000000    -0.489085   
O61      O      0.029610000000     0.608050000000     0.642730000000    -0.433396   
O62      O      0.004390000000     0.454470000000     0.611070000000    -0.455965   
O63      O      0.144360000000     0.618530000000     0.588800000000    -0.425978   
O64      O      0.112140000000     0.665270000000     0.601770000000    -0.435282   
O65      O      0.080520000000     0.492910000000     0.593350000000    -0.440533   
O66      O      0.172090000000     0.629150000000     0.510500000000    -0.391719   
O67      O      0.024350000000     0.533770000000     0.650650000000    -0.485814   
O68      O      0.043370000000     0.561780000000     0.563850000000    -0.527614   
O69      O      0.432580000000     0.009620000000     0.022980000000    -0.424048   
O70      O      0.597960000000     0.988720000000     0.007960000000    -0.408972   
O71      O      0.541050000000     0.085650000000     0.953460000000    -0.416684   
O72      O      0.447290000000     0.921080000000     0.054330000000    -0.450754   
O73      O      0.559800000000     0.027040000000     0.961160000000    -0.45387    
O74      O      0.432960000000     0.968470000000     0.094070000000    -0.391945   
O75      O      0.520270000000     0.928330000000     0.013930000000    -0.445701   
O76      O      0.474690000000     0.085520000000     0.000320000000    -0.429928   
O77      O      0.528270000000     0.047980000000     0.117280000000    -0.424103   
O78      O      0.649520000000     0.086800000000     0.994980000000    -0.418638   
O79      O      0.538700000000     0.120100000000     0.069600000000    -0.412979   
O80      O      0.584930000000     0.977140000000     0.083500000000    -0.455138   
O81      O      0.619260000000     0.059210000000     0.071620000000    -0.436595   
O82      O      0.460180000000     0.072170000000     0.090510000000    -0.399545   
O83      O      0.512210000000     0.969180000000     0.122940000000    -0.457603   
O84      O      0.615630000000     0.129890000000     0.017910000000    -0.433594   
O85      O      0.523000000000     0.015640000000     0.037100000000    -0.626347   
O86      O      0.483900000000     0.071760000000     0.574900000000    -0.480172   
O87      O      0.651540000000     0.016780000000     0.496850000000    -0.402659   
O88      O      0.529670000000     0.054600000000     0.452050000000    -0.52057    
O89      O      0.492430000000     0.944440000000     0.551300000000    -0.427139   
O90      O      0.572310000000     0.016430000000     0.460360000000    -0.422521   
O91      O      0.482190000000     0.989920000000     0.597500000000    -0.413962   
O92      O      0.574020000000     0.956040000000     0.510980000000    -0.4274     
O93      O      0.475710000000     0.053990000000     0.508370000000    -0.484854   
O94      O      0.588320000000     0.058370000000     0.624350000000    -0.457224   
O95      O      0.654490000000     0.103640000000     0.488460000000    -0.439149   
O96      O      0.556690000000     0.143220000000     0.534520000000    -0.518734   
O97      O      0.627480000000     0.997310000000     0.583730000000    -0.452722   
O98      O      0.658850000000     0.073360000000     0.561320000000    -0.421838   
O99      O      0.582640000000     0.137240000000     0.598560000000    -0.43583    
O100     O      0.549420000000     0.977570000000     0.626060000000    -0.394931   
O101     O      0.609640000000     0.140300000000     0.481210000000    -0.485861   
O102     O      0.564120000000     0.052220000000     0.541170000000    -0.549324   
O103     O      0.482170000000     0.450820000000     0.009260000000    -0.445689   
O104     O      0.581360000000     0.669820000000     0.005870000000    -0.455439   
O105     O      0.469000000000     0.556770000000     0.092320000000    -0.465605   
O106     O      0.547720000000     0.588440000000     0.963050000000    -0.422162   
O107     O      0.500160000000     0.610290000000     0.041720000000    -0.44405    
O108     O      0.548090000000     0.517250000000     0.958080000000    -0.447638   
O109     O      0.639420000000     0.670350000000     0.969700000000    -0.394621   
O110     O      0.450800000000     0.493720000000     0.032780000000    -0.476884   
O111     O      0.623720000000     0.527690000000     0.017140000000    -0.470306   
O112     O      0.557940000000     0.610970000000     0.120380000000    -0.411891   
O113     O      0.490550000000     0.445230000000     0.086550000000    -0.437249   
O114     O      0.661630000000     0.635330000000     0.039110000000    -0.437257   
O115     O      0.634630000000     0.668600000000     0.079630000000    -0.456455   
O116     O      0.564560000000     0.469990000000     0.067900000000    -0.449335   
O117     O      0.638100000000     0.587130000000     0.971450000000    -0.39433    
O118     O      0.529870000000     0.528900000000     0.130960000000    -0.469509   
O119     O      0.558200000000     0.558110000000     0.044050000000    -0.523178   
O120     O      0.471700000000     0.510190000000     0.509160000000    -0.436518   
O121     O      0.577220000000     0.661930000000     0.506930000000    -0.455085   
O122     O      0.484780000000     0.558610000000     0.604040000000    -0.417391   
O123     O      0.626440000000     0.605750000000     0.463610000000    -0.422033   
O124     O      0.504220000000     0.610000000000     0.549470000000    -0.476413   
O125     O      0.544730000000     0.570050000000     0.461740000000    -0.453397   
O126     O      0.655450000000     0.685050000000     0.509240000000    -0.435944   
O127     O      0.472760000000     0.478930000000     0.571890000000    -0.465851   
O128     O      0.595820000000     0.518360000000     0.484190000000    -0.437953   
O129     O      0.561600000000     0.631780000000     0.625910000000    -0.430096   
O130     O      0.565340000000     0.492710000000     0.597310000000    -0.428083   
O131     O      0.672430000000     0.636230000000     0.580480000000    -0.435301   
O132     O      0.638790000000     0.684080000000     0.582230000000    -0.458369   
O133     O      0.528300000000     0.463270000000     0.535490000000    -0.449986   
O134     O      0.648010000000     0.557500000000     0.536550000000    -0.443975   
O135     O      0.585090000000     0.576270000000     0.631960000000    -0.455972   
O136     O      0.570900000000     0.577060000000     0.547220000000    -0.527067   


