data_structure

_audit_creation_method RASPA-1.0
_audit_creation_date 2023-5-19
_audit_author_name 'Poobodin Mano'

_cell_length_a    39.0277
_cell_length_b    39.3871
_cell_length_c    39.1531
_cell_angle_alpha 90
_cell_angle_beta  90
_cell_angle_gamma 90
_cell_volume      60185.7

_symmetry_cell_setting          triclinic
_symmetry_space_group_name_Hall 'P 1'
_symmetry_space_group_name_H-M  'P 1'
_symmetry_Int_Tables_number     1

_symmetry_equiv_pos_as_xyz 'x,y,z'

loop_
_atom_site_label
_atom_site_type_symbol
_atom_site_fract_x
_atom_site_fract_y
_atom_site_fract_z
_atom_site_charge
C1       C      0.458940000000     0.435350000000     0.061930000000     0.398196   
C2       C      0.458960000000     0.058770000000     0.438070000000     0.398447   
C3       C      0.458930000000     0.058760000000     0.061920000000     0.398298   
C4       C      0.458920000000     0.435360000000     0.438090000000     0.398073   
C5       C      0.049570000000     0.438580000000     0.441260000000     0.39211    
C6       C      0.049570000000     0.055520000000     0.058750000000     0.39215    
C7       C      0.049580000000     0.438590000000     0.058740000000     0.392158   
C8       C      0.049600000000     0.055510000000     0.441280000000     0.392051   
C9       C      0.294260000000     0.308760000000     0.188080000000     0.398442   
C10      C      0.294290000000     0.185370000000     0.311920000000     0.398251   
C11      C      0.294250000000     0.308770000000     0.311940000000     0.398383   
C12      C      0.294260000000     0.185350000000     0.188080000000     0.398117   
C13      C      0.203620000000     0.188590000000     0.191280000000     0.39204    
C14      C      0.203610000000     0.305510000000     0.308740000000     0.392076   
C15      C      0.203630000000     0.305520000000     0.191270000000     0.39218    
C16      C      0.203640000000     0.188580000000     0.308750000000     0.392215   
C17      C      0.166340000000     0.137660000000     0.184180000000    -0.0236107  
C18      C      0.086860000000     0.106450000000     0.065850000000    -0.0235695  
C19      C      0.086710000000     0.063120000000     0.110050000000    -0.0235381  
C20      C      0.108350000000     0.092340000000     0.120360000000     0.0146907  
C21      C      0.108430000000     0.117050000000     0.095150000000     0.014713   
C22      C      0.126680000000     0.147450000000     0.099090000000    -0.0658771  
C23      C      0.166480000000     0.180990000000     0.139970000000    -0.0236881  
C24      C      0.126520000000     0.096660000000     0.150940000000    -0.0658351  
C25      C      0.144850000000     0.151760000000     0.129660000000     0.0147614  
C26      C      0.144770000000     0.127060000000     0.154870000000     0.014709   
C27      C      0.086880000000     0.106430000000     0.434190000000    -0.023568   
C28      C      0.166370000000     0.137650000000     0.315850000000    -0.023567   
C29      C      0.166510000000     0.180980000000     0.360060000000    -0.0236198  
C30      C      0.144870000000     0.151750000000     0.370370000000     0.0147322  
C31      C      0.144790000000     0.127050000000     0.345160000000     0.0146813  
C32      C      0.126550000000     0.096640000000     0.349100000000    -0.0658023  
C33      C      0.086740000000     0.063100000000     0.389980000000    -0.0235929  
C34      C      0.126700000000     0.147440000000     0.400940000000    -0.0658181  
C35      C      0.108370000000     0.092330000000     0.379670000000     0.0147174  
C36      C      0.108450000000     0.117040000000     0.404880000000     0.0146858  
C37      C      0.166350000000     0.356450000000     0.184170000000    -0.0235425  
C38      C      0.086860000000     0.387670000000     0.065830000000    -0.0235952  
C39      C      0.086720000000     0.431000000000     0.110040000000    -0.02357    
C40      C      0.108360000000     0.401770000000     0.120350000000     0.0147016  
C41      C      0.108440000000     0.377070000000     0.095140000000     0.0146758  
C42      C      0.126690000000     0.346660000000     0.099080000000    -0.0658289  
C43      C      0.166490000000     0.313120000000     0.139960000000    -0.0236711  
C44      C      0.126530000000     0.397460000000     0.150920000000    -0.0658017  
C45      C      0.144860000000     0.342350000000     0.129650000000     0.014758   
C46      C      0.144780000000     0.367060000000     0.154860000000     0.0146623  
C47      C      0.422130000000     0.066530000000     0.113410000000    -0.0233393  
C48      C      0.331050000000     0.177570000000     0.136590000000    -0.0232988  
C49      C      0.330920000000     0.134050000000     0.180620000000    -0.0233044  
C50      C      0.355360000000     0.125210000000     0.153040000000     0.0148384  
C51      C      0.355440000000     0.150020000000     0.127930000000     0.0148218  
C52      C      0.376670000000     0.147560000000     0.099170000000    -0.0658522  
C53      C      0.422260000000     0.110050000000     0.069370000000    -0.0233019  
C54      C      0.376500000000     0.096530000000     0.150810000000    -0.0658597  
C55      C      0.397800000000     0.118890000000     0.096950000000     0.0148331  
C56      C      0.397730000000     0.094070000000     0.122060000000     0.0148629  
C57      C      0.422240000000     0.384070000000     0.430650000000    -0.0234112  
C58      C      0.330900000000     0.360070000000     0.319400000000    -0.0232196  
C59      C      0.331030000000     0.316550000000     0.363430000000    -0.0233088  
C60      C      0.355420000000     0.344110000000     0.372090000000     0.014861   
C61      C      0.355350000000     0.368920000000     0.346980000000     0.014796   
C62      C      0.376490000000     0.397590000000     0.349200000000    -0.0658457  
C63      C      0.422110000000     0.427600000000     0.386610000000    -0.0233693  
C64      C      0.376650000000     0.346560000000     0.400840000000    -0.0658722  
C65      C      0.397710000000     0.400050000000     0.377960000000     0.0148519  
C66      C      0.397790000000     0.375240000000     0.403070000000     0.0148597  
C67      C      0.330970000000     0.134080000000     0.319360000000    -0.0233051  
C68      C      0.422320000000     0.110080000000     0.430610000000    -0.0232534  
C69      C      0.422180000000     0.066560000000     0.386570000000    -0.0234013  
C70      C      0.397790000000     0.094110000000     0.377920000000     0.0149103  
C71      C      0.397870000000     0.118930000000     0.403030000000     0.0147887  
C72      C      0.376730000000     0.147600000000     0.400800000000    -0.065831   
C73      C      0.331110000000     0.177600000000     0.363390000000    -0.023274   
C74      C      0.376570000000     0.096570000000     0.349160000000    -0.0658819  
C75      C      0.355510000000     0.150060000000     0.372040000000     0.0148295  
C76      C      0.355430000000     0.125240000000     0.346930000000     0.0148452  
C77      C      0.086690000000     0.430980000000     0.389960000000    -0.0235456  
C78      C      0.166460000000     0.313100000000     0.360040000000    -0.0237296  
C79      C      0.166320000000     0.356430000000     0.315830000000    -0.0235675  
C80      C      0.144740000000     0.367030000000     0.345130000000     0.0146647  
C81      C      0.144820000000     0.342320000000     0.370340000000     0.0147873  
C82      C      0.126650000000     0.346640000000     0.400920000000    -0.0659027  
C83      C      0.086840000000     0.387640000000     0.434160000000    -0.023667   
C84      C      0.126490000000     0.397430000000     0.349070000000    -0.0657838  
C85      C      0.108400000000     0.377040000000     0.404850000000     0.0147682  
C86      C      0.108320000000     0.401740000000     0.379640000000     0.0146585  
C87      C      0.331060000000     0.316540000000     0.136600000000    -0.0232576  
C88      C      0.422140000000     0.427580000000     0.113420000000    -0.023344   
C89      C      0.422270000000     0.384050000000     0.069380000000    -0.0234166  
C90      C      0.397820000000     0.375210000000     0.096960000000     0.014855   
C91      C      0.397740000000     0.400030000000     0.122070000000     0.0148526  
C92      C      0.376520000000     0.397570000000     0.150830000000    -0.0658652  
C93      C      0.330930000000     0.360060000000     0.180630000000    -0.023312   
C94      C      0.376680000000     0.346540000000     0.099190000000    -0.065868   
C95      C      0.355380000000     0.368900000000     0.153060000000     0.0148396  
C96      C      0.355460000000     0.344080000000     0.127950000000     0.014834   
C97      C      0.458940000000     0.435350000000     0.561930000000     0.3982     
C98      C      0.458960000000     0.058770000000     0.938070000000     0.398442   
C99      C      0.458930000000     0.058760000000     0.561920000000     0.398306   
C100     C      0.458920000000     0.435360000000     0.938090000000     0.398181   
C101     C      0.049570000000     0.438580000000     0.941270000000     0.392018   
C102     C      0.049570000000     0.055520000000     0.558750000000     0.392154   
C103     C      0.049580000000     0.438590000000     0.558740000000     0.392163   
C104     C      0.049600000000     0.055510000000     0.941280000000     0.391988   
C105     C      0.294260000000     0.308760000000     0.688090000000     0.398486   
C106     C      0.294290000000     0.185370000000     0.811920000000     0.398252   
C107     C      0.294250000000     0.308770000000     0.811940000000     0.398382   
C108     C      0.294260000000     0.185350000000     0.688080000000     0.398117   
C109     C      0.203620000000     0.188590000000     0.691280000000     0.392039   
C110     C      0.203610000000     0.305510000000     0.808740000000     0.392079   
C111     C      0.203630000000     0.305520000000     0.691270000000     0.392181   
C112     C      0.203640000000     0.188580000000     0.808750000000     0.392215   
C113     C      0.166340000000     0.137660000000     0.684180000000    -0.0236101  
C114     C      0.086860000000     0.106450000000     0.565850000000    -0.0235748  
C115     C      0.086710000000     0.063120000000     0.610050000000    -0.0235372  
C116     C      0.108350000000     0.092340000000     0.620360000000     0.0146896  
C117     C      0.108430000000     0.117050000000     0.595150000000     0.014723   
C118     C      0.126680000000     0.147450000000     0.599090000000    -0.0658781  
C119     C      0.166480000000     0.180990000000     0.639970000000    -0.0236907  
C120     C      0.126520000000     0.096660000000     0.650940000000    -0.0658322  
C121     C      0.144850000000     0.151760000000     0.629660000000     0.0147676  
C122     C      0.144770000000     0.127060000000     0.654870000000     0.0147076  
C123     C      0.086880000000     0.106430000000     0.934190000000    -0.0236159  
C124     C      0.166370000000     0.137650000000     0.815850000000    -0.0235653  
C125     C      0.166510000000     0.180980000000     0.860060000000    -0.0236243  
C126     C      0.144870000000     0.151750000000     0.870370000000     0.0147432  
C127     C      0.144790000000     0.127050000000     0.845160000000     0.0146766  
C128     C      0.126550000000     0.096640000000     0.849100000000    -0.0657948  
C129     C      0.086740000000     0.063100000000     0.889980000000    -0.023583   
C130     C      0.126700000000     0.147440000000     0.900940000000    -0.065828   
C131     C      0.108370000000     0.092330000000     0.879670000000     0.0147086  
C132     C      0.108450000000     0.117040000000     0.904880000000     0.0147145  
C133     C      0.166350000000     0.356450000000     0.684170000000    -0.0235419  
C134     C      0.086860000000     0.387670000000     0.565830000000    -0.0236004  
C135     C      0.086720000000     0.431000000000     0.610040000000    -0.023569   
C136     C      0.108360000000     0.401770000000     0.620350000000     0.0147005  
C137     C      0.108440000000     0.377070000000     0.595140000000     0.0146858  
C138     C      0.126690000000     0.346660000000     0.599080000000    -0.0658298  
C139     C      0.166490000000     0.313120000000     0.639960000000    -0.0236737  
C140     C      0.126530000000     0.397460000000     0.650920000000    -0.0657988  
C141     C      0.144860000000     0.342350000000     0.629650000000     0.0147643  
C142     C      0.144780000000     0.367060000000     0.654860000000     0.014661   
C143     C      0.422130000000     0.066530000000     0.613400000000    -0.0232379  
C144     C      0.331050000000     0.177570000000     0.636590000000    -0.0233043  
C145     C      0.330920000000     0.134050000000     0.680620000000    -0.0233008  
C146     C      0.355360000000     0.125210000000     0.653040000000     0.0148289  
C147     C      0.355440000000     0.150020000000     0.627930000000     0.0148357  
C148     C      0.376670000000     0.147560000000     0.599180000000    -0.0658261  
C149     C      0.422260000000     0.110050000000     0.569370000000    -0.0233058  
C150     C      0.376500000000     0.096530000000     0.650810000000    -0.0658379  
C151     C      0.397800000000     0.118890000000     0.596950000000     0.0148401  
C152     C      0.397730000000     0.094070000000     0.622060000000     0.0148221  
C153     C      0.422240000000     0.384070000000     0.930650000000    -0.0234119  
C154     C      0.330900000000     0.360070000000     0.819400000000    -0.0232189  
C155     C      0.331030000000     0.316550000000     0.863430000000    -0.0233118  
C156     C      0.355420000000     0.344110000000     0.872090000000     0.014868   
C157     C      0.355350000000     0.368920000000     0.846980000000     0.0147946  
C158     C      0.376490000000     0.397590000000     0.849200000000    -0.0658421  
C159     C      0.422110000000     0.427600000000     0.886610000000    -0.0233641  
C160     C      0.376650000000     0.346560000000     0.900840000000    -0.0658726  
C161     C      0.397710000000     0.400050000000     0.877960000000     0.0148503  
C162     C      0.397790000000     0.375240000000     0.903070000000     0.0148696  
C163     C      0.330970000000     0.134080000000     0.819360000000    -0.0233047  
C164     C      0.422320000000     0.110080000000     0.930610000000    -0.0232598  
C165     C      0.422180000000     0.066560000000     0.886570000000    -0.0234004  
C166     C      0.397790000000     0.094110000000     0.877920000000     0.0149096  
C167     C      0.397870000000     0.118930000000     0.903030000000     0.0147995  
C168     C      0.376730000000     0.147600000000     0.900800000000    -0.0658311  
C169     C      0.331110000000     0.177600000000     0.863390000000    -0.0232719  
C170     C      0.376570000000     0.096570000000     0.849160000000    -0.0658792  
C171     C      0.355510000000     0.150060000000     0.872040000000     0.0148345  
C172     C      0.355430000000     0.125240000000     0.846930000000     0.0148452  
C173     C      0.086690000000     0.430980000000     0.889960000000    -0.023592   
C174     C      0.166460000000     0.313100000000     0.860030000000    -0.0236274  
C175     C      0.166320000000     0.356430000000     0.815830000000    -0.0235743  
C176     C      0.144740000000     0.367030000000     0.845130000000     0.014685   
C177     C      0.144820000000     0.342320000000     0.870340000000     0.0147425  
C178     C      0.126650000000     0.346640000000     0.900920000000    -0.0658791  
C179     C      0.086840000000     0.387640000000     0.934160000000    -0.0236866  
C180     C      0.126490000000     0.397430000000     0.849070000000    -0.0657978  
C181     C      0.108400000000     0.377040000000     0.904850000000     0.0147677  
C182     C      0.108320000000     0.401740000000     0.879640000000     0.0146793  
C183     C      0.331060000000     0.316540000000     0.636600000000    -0.0232601  
C184     C      0.422140000000     0.427580000000     0.613420000000    -0.0233435  
C185     C      0.422270000000     0.384050000000     0.569380000000    -0.0234214  
C186     C      0.397820000000     0.375210000000     0.596960000000     0.0148636  
C187     C      0.397740000000     0.400030000000     0.622070000000     0.0148525  
C188     C      0.376520000000     0.397570000000     0.650830000000    -0.0658646  
C189     C      0.330930000000     0.360060000000     0.680630000000    -0.0233252  
C190     C      0.376680000000     0.346540000000     0.599190000000    -0.0658673  
C191     C      0.355380000000     0.368900000000     0.653060000000     0.0148427  
C192     C      0.355460000000     0.344080000000     0.627950000000     0.0148374  
C193     C      0.458940000000     0.935350000000     0.061930000000     0.398196   
C194     C      0.458960000000     0.558770000000     0.438070000000     0.39845    
C195     C      0.458930000000     0.558760000000     0.061920000000     0.398299   
C196     C      0.458920000000     0.935360000000     0.438090000000     0.39807    
C197     C      0.049570000000     0.938580000000     0.441260000000     0.392107   
C198     C      0.049570000000     0.555520000000     0.058750000000     0.392029   
C199     C      0.049580000000     0.938590000000     0.058740000000     0.392154   
C200     C      0.049600000000     0.555510000000     0.441280000000     0.392051   
C201     C      0.294260000000     0.808760000000     0.188080000000     0.398467   
C202     C      0.294290000000     0.685370000000     0.311920000000     0.398252   
C203     C      0.294250000000     0.808770000000     0.311940000000     0.398406   
C204     C      0.294260000000     0.685350000000     0.188080000000     0.398301   
C205     C      0.203620000000     0.688590000000     0.191280000000     0.392039   
C206     C      0.203610000000     0.805510000000     0.308740000000     0.3921     
C207     C      0.203630000000     0.805520000000     0.191270000000     0.392204   
C208     C      0.203640000000     0.688580000000     0.308750000000     0.392216   
C209     C      0.166340000000     0.637660000000     0.184180000000    -0.0236053  
C210     C      0.086860000000     0.606450000000     0.065850000000    -0.0236228  
C211     C      0.086710000000     0.563120000000     0.110050000000    -0.0235429  
C212     C      0.108350000000     0.592340000000     0.120360000000     0.0146709  
C213     C      0.108430000000     0.617050000000     0.095150000000     0.0147379  
C214     C      0.126680000000     0.647450000000     0.099090000000    -0.0658995  
C215     C      0.166480000000     0.681000000000     0.139970000000    -0.0237522  
C216     C      0.126520000000     0.596660000000     0.150940000000    -0.065827   
C217     C      0.144850000000     0.651760000000     0.129660000000     0.0147884  
C218     C      0.144770000000     0.627060000000     0.154870000000     0.0146923  
C219     C      0.086880000000     0.606440000000     0.434190000000    -0.0236707  
C220     C      0.166370000000     0.637650000000     0.315850000000    -0.0235622  
C221     C      0.166510000000     0.680980000000     0.360060000000    -0.023623   
C222     C      0.144870000000     0.651750000000     0.370370000000     0.0147406  
C223     C      0.144790000000     0.627050000000     0.345160000000     0.014669   
C224     C      0.126550000000     0.596640000000     0.349100000000    -0.0657918  
C225     C      0.086740000000     0.563100000000     0.389980000000    -0.0235812  
C226     C      0.126700000000     0.647440000000     0.400940000000    -0.065835   
C227     C      0.108370000000     0.592330000000     0.379670000000     0.0146892  
C228     C      0.108450000000     0.617030000000     0.404880000000     0.0147288  
C229     C      0.166350000000     0.856450000000     0.184170000000    -0.0235382  
C230     C      0.086860000000     0.887670000000     0.065830000000    -0.0235962  
C231     C      0.086720000000     0.931000000000     0.110040000000    -0.023565   
C232     C      0.108360000000     0.901770000000     0.120350000000     0.0146924  
C233     C      0.108440000000     0.877070000000     0.095140000000     0.0146772  
C234     C      0.126690000000     0.846660000000     0.099080000000    -0.0658315  
C235     C      0.166490000000     0.813120000000     0.139960000000    -0.0236707  
C236     C      0.126530000000     0.897460000000     0.150920000000    -0.0658005  
C237     C      0.144860000000     0.842350000000     0.129650000000     0.0147593  
C238     C      0.144780000000     0.867060000000     0.154860000000     0.0146559  
C239     C      0.422130000000     0.566530000000     0.113410000000    -0.0233647  
C240     C      0.331050000000     0.677570000000     0.136590000000    -0.0232875  
C241     C      0.330920000000     0.634050000000     0.180620000000    -0.023296   
C242     C      0.355360000000     0.625210000000     0.153040000000     0.0148349  
C243     C      0.355440000000     0.650020000000     0.127930000000     0.0148191  
C244     C      0.376670000000     0.647560000000     0.099170000000    -0.065854   
C245     C      0.422260000000     0.610050000000     0.069370000000    -0.0233032  
C246     C      0.376500000000     0.596540000000     0.150810000000    -0.0658302  
C247     C      0.397800000000     0.618890000000     0.096950000000     0.0148338  
C248     C      0.397730000000     0.594080000000     0.122060000000     0.0148471  
C249     C      0.422240000000     0.884070000000     0.430650000000    -0.0234092  
C250     C      0.330900000000     0.860080000000     0.319400000000    -0.0233207  
C251     C      0.331030000000     0.816550000000     0.363430000000    -0.0233     
C252     C      0.355420000000     0.844100000000     0.372090000000     0.0148422  
C253     C      0.355350000000     0.868920000000     0.346980000000     0.0148443  
C254     C      0.376490000000     0.897590000000     0.349200000000    -0.0658704  
C255     C      0.422110000000     0.927600000000     0.386610000000    -0.0233692  
C256     C      0.376650000000     0.846560000000     0.400840000000    -0.0658629  
C257     C      0.397710000000     0.900050000000     0.377960000000     0.014855   
C258     C      0.397790000000     0.875240000000     0.403070000000     0.0148524  
C259     C      0.330970000000     0.634080000000     0.319360000000    -0.0232938  
C260     C      0.422320000000     0.610080000000     0.430610000000    -0.023258   
C261     C      0.422180000000     0.566560000000     0.386570000000    -0.0233866  
C262     C      0.397790000000     0.594110000000     0.377920000000     0.0148786  
C263     C      0.397870000000     0.618930000000     0.403030000000     0.0148001  
C264     C      0.376730000000     0.647600000000     0.400800000000    -0.0658422  
C265     C      0.331110000000     0.677600000000     0.363390000000    -0.0232776  
C266     C      0.376570000000     0.596570000000     0.349160000000    -0.0658337  
C267     C      0.355510000000     0.650060000000     0.372040000000     0.0148399  
C268     C      0.355430000000     0.625240000000     0.346930000000     0.0148197  
C269     C      0.086690000000     0.930980000000     0.389960000000    -0.0235444  
C270     C      0.166460000000     0.813100000000     0.360040000000    -0.0237266  
C271     C      0.166320000000     0.856430000000     0.315830000000    -0.0235714  
C272     C      0.144740000000     0.867030000000     0.345130000000     0.0146764  
C273     C      0.144820000000     0.842320000000     0.370340000000     0.0147808  
C274     C      0.126650000000     0.846640000000     0.400920000000    -0.0658987  
C275     C      0.086840000000     0.887640000000     0.434160000000    -0.0236615  
C276     C      0.126490000000     0.897430000000     0.349070000000    -0.065827   
C277     C      0.108400000000     0.877040000000     0.404850000000     0.0147631  
C278     C      0.108320000000     0.901750000000     0.379640000000     0.0146693  
C279     C      0.331060000000     0.816530000000     0.136600000000    -0.0233194  
C280     C      0.422140000000     0.927580000000     0.113420000000    -0.0233352  
C281     C      0.422270000000     0.884060000000     0.069380000000    -0.0233189  
C282     C      0.397820000000     0.875210000000     0.096960000000     0.0148218  
C283     C      0.397740000000     0.900030000000     0.122070000000     0.0148369  
C284     C      0.376520000000     0.897570000000     0.150830000000    -0.0658225  
C285     C      0.330930000000     0.860060000000     0.180630000000    -0.0232996  
C286     C      0.376680000000     0.846540000000     0.099190000000    -0.0658662  
C287     C      0.355380000000     0.868900000000     0.153060000000     0.0148135  
C288     C      0.355460000000     0.844080000000     0.127950000000     0.0148562  
C289     C      0.458940000000     0.935350000000     0.561930000000     0.3982     
C290     C      0.458960000000     0.558770000000     0.938070000000     0.398444   
C291     C      0.458930000000     0.558760000000     0.561920000000     0.398306   
C292     C      0.458920000000     0.935360000000     0.938090000000     0.398178   
C293     C      0.049570000000     0.938580000000     0.941270000000     0.392015   
C294     C      0.049570000000     0.555520000000     0.558750000000     0.392034   
C295     C      0.049580000000     0.938590000000     0.558740000000     0.39216    
C296     C      0.049600000000     0.555510000000     0.941280000000     0.391988   
C297     C      0.294260000000     0.808760000000     0.688090000000     0.398511   
C298     C      0.294290000000     0.685370000000     0.811920000000     0.398252   
C299     C      0.294250000000     0.808770000000     0.811940000000     0.398405   
C300     C      0.294260000000     0.685350000000     0.688080000000     0.3983     
C301     C      0.203620000000     0.688590000000     0.691280000000     0.392038   
C302     C      0.203610000000     0.805510000000     0.808740000000     0.392103   
C303     C      0.203630000000     0.805520000000     0.691270000000     0.392204   
C304     C      0.203640000000     0.688580000000     0.808750000000     0.392216   
C305     C      0.166340000000     0.637660000000     0.684180000000    -0.0236048  
C306     C      0.086860000000     0.606450000000     0.565850000000    -0.023628   
C307     C      0.086710000000     0.563120000000     0.610050000000    -0.0235419  
C308     C      0.108350000000     0.592340000000     0.620360000000     0.0146697  
C309     C      0.108430000000     0.617050000000     0.595150000000     0.0147479  
C310     C      0.126680000000     0.647450000000     0.599090000000    -0.0659004  
C311     C      0.166480000000     0.681000000000     0.639970000000    -0.0237549  
C312     C      0.126520000000     0.596660000000     0.650940000000    -0.0658241  
C313     C      0.144850000000     0.651760000000     0.629660000000     0.0147945  
C314     C      0.144770000000     0.627060000000     0.654870000000     0.0146909  
C315     C      0.086880000000     0.606440000000     0.934190000000    -0.0237185  
C316     C      0.166370000000     0.637650000000     0.815850000000    -0.0235604  
C317     C      0.166510000000     0.680980000000     0.860060000000    -0.0236275  
C318     C      0.144870000000     0.651750000000     0.870370000000     0.0147515  
C319     C      0.144790000000     0.627050000000     0.845160000000     0.0146644  
C320     C      0.126550000000     0.596640000000     0.849100000000    -0.0657843  
C321     C      0.086740000000     0.563100000000     0.889980000000    -0.0235713  
C322     C      0.126700000000     0.647440000000     0.900940000000    -0.0658449  
C323     C      0.108370000000     0.592330000000     0.879670000000     0.0146804  
C324     C      0.108450000000     0.617030000000     0.904880000000     0.0147575  
C325     C      0.166350000000     0.856450000000     0.684170000000    -0.0235375  
C326     C      0.086860000000     0.887670000000     0.565830000000    -0.0236013  
C327     C      0.086720000000     0.931000000000     0.610040000000    -0.023564   
C328     C      0.108360000000     0.901770000000     0.620350000000     0.0146912  
C329     C      0.108440000000     0.877070000000     0.595140000000     0.0146871  
C330     C      0.126690000000     0.846660000000     0.599080000000    -0.0658324  
C331     C      0.166490000000     0.813120000000     0.639960000000    -0.0236733  
C332     C      0.126530000000     0.897460000000     0.650920000000    -0.0657976  
C333     C      0.144860000000     0.842350000000     0.629650000000     0.0147656  
C334     C      0.144780000000     0.867060000000     0.654860000000     0.0146546  
C335     C      0.422130000000     0.566530000000     0.613400000000    -0.0232633  
C336     C      0.331050000000     0.677570000000     0.636590000000    -0.023293   
C337     C      0.330920000000     0.634050000000     0.680620000000    -0.0232925  
C338     C      0.355360000000     0.625210000000     0.653040000000     0.0148253  
C339     C      0.355440000000     0.650020000000     0.627930000000     0.0148329  
C340     C      0.376670000000     0.647560000000     0.599180000000    -0.0658279  
C341     C      0.422260000000     0.610050000000     0.569370000000    -0.023307   
C342     C      0.376500000000     0.596540000000     0.650810000000    -0.0658085  
C343     C      0.397800000000     0.618890000000     0.596950000000     0.0148408  
C344     C      0.397730000000     0.594080000000     0.622060000000     0.0148062  
C345     C      0.422240000000     0.884070000000     0.930650000000    -0.0234098  
C346     C      0.330900000000     0.860080000000     0.819400000000    -0.0233201  
C347     C      0.331030000000     0.816550000000     0.863430000000    -0.023303   
C348     C      0.355420000000     0.844100000000     0.872090000000     0.0148492  
C349     C      0.355350000000     0.868920000000     0.846980000000     0.0148429  
C350     C      0.376490000000     0.897590000000     0.849200000000    -0.0658668  
C351     C      0.422110000000     0.927600000000     0.886610000000    -0.0233641  
C352     C      0.376650000000     0.846560000000     0.900840000000    -0.0658633  
C353     C      0.397710000000     0.900050000000     0.877960000000     0.0148534  
C354     C      0.397790000000     0.875240000000     0.903070000000     0.0148623  
C355     C      0.330970000000     0.634080000000     0.819360000000    -0.0232934  
C356     C      0.422320000000     0.610080000000     0.930610000000    -0.0232643  
C357     C      0.422180000000     0.566560000000     0.886570000000    -0.0233858  
C358     C      0.397790000000     0.594110000000     0.877920000000     0.0148779  
C359     C      0.397870000000     0.618930000000     0.903030000000     0.0148109  
C360     C      0.376730000000     0.647600000000     0.900800000000    -0.0658424  
C361     C      0.331110000000     0.677600000000     0.863390000000    -0.0232755  
C362     C      0.376570000000     0.596570000000     0.849160000000    -0.065831   
C363     C      0.355510000000     0.650060000000     0.872040000000     0.0148449  
C364     C      0.355430000000     0.625240000000     0.846930000000     0.0148197  
C365     C      0.086690000000     0.930980000000     0.889960000000    -0.0235908  
C366     C      0.166460000000     0.813100000000     0.860030000000    -0.0236243  
C367     C      0.166320000000     0.856430000000     0.815830000000    -0.0235782  
C368     C      0.144740000000     0.867030000000     0.845130000000     0.0146967  
C369     C      0.144820000000     0.842320000000     0.870340000000     0.0147359  
C370     C      0.126650000000     0.846640000000     0.900920000000    -0.0658752  
C371     C      0.086840000000     0.887640000000     0.934160000000    -0.0236811  
C372     C      0.126490000000     0.897430000000     0.849070000000    -0.0658409  
C373     C      0.108400000000     0.877040000000     0.904850000000     0.0147626  
C374     C      0.108320000000     0.901750000000     0.879640000000     0.0146902  
C375     C      0.331060000000     0.816530000000     0.636600000000    -0.023322   
C376     C      0.422140000000     0.927580000000     0.613420000000    -0.0233347  
C377     C      0.422270000000     0.884060000000     0.569380000000    -0.0233236  
C378     C      0.397820000000     0.875210000000     0.596960000000     0.0148303  
C379     C      0.397740000000     0.900030000000     0.622070000000     0.0148368  
C380     C      0.376520000000     0.897570000000     0.650830000000    -0.0658218  
C381     C      0.330930000000     0.860060000000     0.680630000000    -0.0233128  
C382     C      0.376680000000     0.846540000000     0.599190000000    -0.0658656  
C383     C      0.355380000000     0.868900000000     0.653060000000     0.0148166  
C384     C      0.355460000000     0.844080000000     0.627950000000     0.0148595  
C385     C      0.958940000000     0.435350000000     0.061930000000     0.398136   
C386     C      0.958960000000     0.058770000000     0.438070000000     0.398388   
C387     C      0.958930000000     0.058760000000     0.061920000000     0.398238   
C388     C      0.958920000000     0.435360000000     0.438090000000     0.398014   
C389     C      0.549570000000     0.438580000000     0.441260000000     0.392172   
C390     C      0.549570000000     0.055520000000     0.058750000000     0.39221    
C391     C      0.549580000000     0.438590000000     0.058740000000     0.392218   
C392     C      0.549590000000     0.055510000000     0.441280000000     0.392177   
C393     C      0.794260000000     0.308760000000     0.188080000000     0.398512   
C394     C      0.794290000000     0.185370000000     0.311920000000     0.398254   
C395     C      0.794250000000     0.308770000000     0.311940000000     0.39838    
C396     C      0.794260000000     0.185350000000     0.188080000000     0.398145   
C397     C      0.703620000000     0.188590000000     0.191280000000     0.392045   
C398     C      0.703610000000     0.305510000000     0.308740000000     0.392077   
C399     C      0.703630000000     0.305520000000     0.191270000000     0.392228   
C400     C      0.703640000000     0.188580000000     0.308750000000     0.392219   
C401     C      0.666340000000     0.137660000000     0.184180000000    -0.0236149  
C402     C      0.586860000000     0.106450000000     0.065850000000    -0.0235703  
C403     C      0.586710000000     0.063120000000     0.110050000000    -0.02357    
C404     C      0.608360000000     0.092340000000     0.120360000000     0.0147209  
C405     C      0.608430000000     0.117050000000     0.095150000000     0.0147227  
C406     C      0.626680000000     0.147450000000     0.099090000000    -0.065868   
C407     C      0.666480000000     0.180990000000     0.139970000000    -0.0236894  
C408     C      0.626520000000     0.096660000000     0.150940000000    -0.0658402  
C409     C      0.644850000000     0.151760000000     0.129660000000     0.014768   
C410     C      0.644770000000     0.127060000000     0.154870000000     0.0147232  
C411     C      0.586880000000     0.106430000000     0.434190000000    -0.0235781  
C412     C      0.666370000000     0.137650000000     0.315850000000    -0.0235692  
C413     C      0.666510000000     0.180980000000     0.360060000000    -0.0236233  
C414     C      0.644870000000     0.151750000000     0.370370000000     0.0147437  
C415     C      0.644790000000     0.127050000000     0.345160000000     0.0146894  
C416     C      0.626550000000     0.096640000000     0.349100000000    -0.0657957  
C417     C      0.586740000000     0.063100000000     0.389980000000    -0.0236029  
C418     C      0.626700000000     0.147440000000     0.400940000000    -0.0658181  
C419     C      0.608370000000     0.092330000000     0.379670000000     0.0147312  
C420     C      0.608460000000     0.117040000000     0.404880000000     0.0147064  
C421     C      0.666350000000     0.356450000000     0.184170000000    -0.0235412  
C422     C      0.586860000000     0.387670000000     0.065830000000    -0.0235973  
C423     C      0.586720000000     0.431000000000     0.110040000000    -0.0236027  
C424     C      0.608360000000     0.401770000000     0.120350000000     0.014727   
C425     C      0.608440000000     0.377070000000     0.095140000000     0.0146882  
C426     C      0.626690000000     0.346660000000     0.099080000000    -0.0658213  
C427     C      0.666490000000     0.313120000000     0.139960000000    -0.0236723  
C428     C      0.626530000000     0.397460000000     0.150920000000    -0.0658007  
C429     C      0.644860000000     0.342350000000     0.129650000000     0.0147661  
C430     C      0.644780000000     0.367060000000     0.154860000000     0.0146726  
C431     C      0.922130000000     0.066530000000     0.113410000000    -0.0233501  
C432     C      0.831050000000     0.177570000000     0.136590000000    -0.0233061  
C433     C      0.830920000000     0.134050000000     0.180620000000    -0.0233151  
C434     C      0.855360000000     0.125210000000     0.153040000000     0.0148476  
C435     C      0.855440000000     0.150020000000     0.127930000000     0.0148295  
C436     C      0.876670000000     0.147560000000     0.099170000000    -0.0658473  
C437     C      0.922260000000     0.110050000000     0.069370000000    -0.0233126  
C438     C      0.876500000000     0.096530000000     0.150810000000    -0.0658556  
C439     C      0.897800000000     0.118890000000     0.096950000000     0.0148511  
C440     C      0.897730000000     0.094070000000     0.122060000000     0.0148813  
C441     C      0.922250000000     0.384070000000     0.430650000000    -0.0233999  
C442     C      0.830900000000     0.360070000000     0.319400000000    -0.023217   
C443     C      0.831040000000     0.316550000000     0.363430000000    -0.0233621  
C444     C      0.855430000000     0.344110000000     0.372090000000     0.0149023  
C445     C      0.855350000000     0.368920000000     0.346980000000     0.0147904  
C446     C      0.876490000000     0.397590000000     0.349200000000    -0.0658366  
C447     C      0.922110000000     0.427600000000     0.386610000000    -0.0233805  
C448     C      0.876650000000     0.346560000000     0.400840000000    -0.0658804  
C449     C      0.897710000000     0.400050000000     0.377960000000     0.0148719  
C450     C      0.897790000000     0.375240000000     0.403070000000     0.0148693  
C451     C      0.830970000000     0.134080000000     0.319360000000    -0.0233044  
C452     C      0.922310000000     0.110080000000     0.430610000000    -0.0233166  
C453     C      0.922180000000     0.066560000000     0.386570000000    -0.0233793  
C454     C      0.897790000000     0.094110000000     0.377920000000     0.0149088  
C455     C      0.897870000000     0.118930000000     0.403030000000     0.014838   
C456     C      0.876730000000     0.147600000000     0.400800000000    -0.0658418  
C457     C      0.831110000000     0.177600000000     0.363390000000    -0.0232795  
C458     C      0.876570000000     0.096570000000     0.349160000000    -0.0658658  
C459     C      0.855510000000     0.150060000000     0.372040000000     0.0148475  
C460     C      0.855430000000     0.125240000000     0.346930000000     0.0148456  
C461     C      0.586690000000     0.430980000000     0.389960000000    -0.0235512  
C462     C      0.666460000000     0.313100000000     0.360040000000    -0.0237309  
C463     C      0.666320000000     0.356430000000     0.315830000000    -0.0235713  
C464     C      0.644740000000     0.367030000000     0.345130000000     0.0146768  
C465     C      0.644820000000     0.342320000000     0.370340000000     0.0147931  
C466     C      0.626650000000     0.346640000000     0.400920000000    -0.0658891  
C467     C      0.586830000000     0.387640000000     0.434160000000    -0.023645   
C468     C      0.626490000000     0.397430000000     0.349070000000    -0.0657814  
C469     C      0.608400000000     0.377040000000     0.404850000000     0.0147673  
C470     C      0.608320000000     0.401740000000     0.379640000000     0.0146806  
C471     C      0.831060000000     0.316540000000     0.136600000000    -0.0232663  
C472     C      0.922140000000     0.427580000000     0.113420000000    -0.023354   
C473     C      0.922270000000     0.384050000000     0.069380000000    -0.0234297  
C474     C      0.897820000000     0.375210000000     0.096960000000     0.0148788  
C475     C      0.897750000000     0.400030000000     0.122070000000     0.0148617  
C476     C      0.876520000000     0.397570000000     0.150830000000    -0.0658479  
C477     C      0.830930000000     0.360060000000     0.180630000000    -0.0232909  
C478     C      0.876680000000     0.346540000000     0.099190000000    -0.0658678  
C479     C      0.855380000000     0.368900000000     0.153060000000     0.0148324  
C480     C      0.855460000000     0.344080000000     0.127950000000     0.0148483  
C481     C      0.958940000000     0.435350000000     0.561930000000     0.39814    
C482     C      0.958960000000     0.058770000000     0.938070000000     0.398382   
C483     C      0.958930000000     0.058760000000     0.561920000000     0.398245   
C484     C      0.958920000000     0.435360000000     0.938090000000     0.398122   
C485     C      0.549570000000     0.438580000000     0.941270000000     0.39208    
C486     C      0.549570000000     0.055520000000     0.558750000000     0.392215   
C487     C      0.549580000000     0.438590000000     0.558740000000     0.392224   
C488     C      0.549590000000     0.055510000000     0.941280000000     0.392114   
C489     C      0.794260000000     0.308760000000     0.688090000000     0.398556   
C490     C      0.794290000000     0.185370000000     0.811920000000     0.398254   
C491     C      0.794250000000     0.308770000000     0.811940000000     0.398379   
C492     C      0.794260000000     0.185350000000     0.688080000000     0.398144   
C493     C      0.703620000000     0.188590000000     0.691280000000     0.392044   
C494     C      0.703610000000     0.305510000000     0.808740000000     0.39208    
C495     C      0.703630000000     0.305520000000     0.691270000000     0.392229   
C496     C      0.703640000000     0.188580000000     0.808750000000     0.392218   
C497     C      0.666340000000     0.137660000000     0.684180000000    -0.0236143  
C498     C      0.586860000000     0.106450000000     0.565850000000    -0.0235756  
C499     C      0.586710000000     0.063120000000     0.610050000000    -0.023569   
C500     C      0.608360000000     0.092340000000     0.620360000000     0.0147197  
C501     C      0.608430000000     0.117050000000     0.595150000000     0.0147327  
C502     C      0.626680000000     0.147450000000     0.599090000000    -0.0658689  
C503     C      0.666480000000     0.180990000000     0.639970000000    -0.0236921  
C504     C      0.626520000000     0.096660000000     0.650940000000    -0.0658373  
C505     C      0.644850000000     0.151760000000     0.629660000000     0.0147741  
C506     C      0.644770000000     0.127060000000     0.654870000000     0.0147218  
C507     C      0.586880000000     0.106430000000     0.934190000000    -0.023626   
C508     C      0.666370000000     0.137650000000     0.815850000000    -0.0235674  
C509     C      0.666510000000     0.180980000000     0.860060000000    -0.0236278  
C510     C      0.644870000000     0.151750000000     0.870370000000     0.0147546  
C511     C      0.644790000000     0.127050000000     0.845160000000     0.0146847  
C512     C      0.626550000000     0.096640000000     0.849100000000    -0.0657882  
C513     C      0.586740000000     0.063100000000     0.889980000000    -0.023593   
C514     C      0.626700000000     0.147440000000     0.900940000000    -0.065828   
C515     C      0.608370000000     0.092330000000     0.879670000000     0.0147225  
C516     C      0.608460000000     0.117040000000     0.904880000000     0.014735   
C517     C      0.666350000000     0.356450000000     0.684170000000    -0.0235405  
C518     C      0.586860000000     0.387670000000     0.565830000000    -0.0236025  
C519     C      0.586720000000     0.431000000000     0.610040000000    -0.0236017  
C520     C      0.608360000000     0.401770000000     0.620350000000     0.0147259  
C521     C      0.608440000000     0.377070000000     0.595140000000     0.0146981  
C522     C      0.626690000000     0.346660000000     0.599080000000    -0.0658222  
C523     C      0.666490000000     0.313120000000     0.639960000000    -0.0236749  
C524     C      0.626530000000     0.397460000000     0.650920000000    -0.0657979  
C525     C      0.644860000000     0.342350000000     0.629650000000     0.0147724  
C526     C      0.644780000000     0.367060000000     0.654860000000     0.0146714  
C527     C      0.922130000000     0.066530000000     0.613400000000    -0.0232487  
C528     C      0.831050000000     0.177570000000     0.636590000000    -0.0233116  
C529     C      0.830920000000     0.134050000000     0.680620000000    -0.0233115  
C530     C      0.855360000000     0.125210000000     0.653040000000     0.014838   
C531     C      0.855440000000     0.150020000000     0.627930000000     0.0148433  
C532     C      0.876670000000     0.147560000000     0.599180000000    -0.0658212  
C533     C      0.922260000000     0.110050000000     0.569370000000    -0.0233164  
C534     C      0.876500000000     0.096530000000     0.650810000000    -0.0658339  
C535     C      0.897800000000     0.118890000000     0.596950000000     0.0148581  
C536     C      0.897730000000     0.094070000000     0.622060000000     0.0148405  
C537     C      0.922250000000     0.384070000000     0.930650000000    -0.0234005  
C538     C      0.830900000000     0.360070000000     0.819400000000    -0.0232163  
C539     C      0.831040000000     0.316550000000     0.863430000000    -0.0233651  
C540     C      0.855430000000     0.344110000000     0.872090000000     0.0149093  
C541     C      0.855350000000     0.368920000000     0.846980000000     0.014789   
C542     C      0.876490000000     0.397590000000     0.849200000000    -0.065833   
C543     C      0.922110000000     0.427600000000     0.886610000000    -0.0233753  
C544     C      0.876650000000     0.346560000000     0.900840000000    -0.0658808  
C545     C      0.897710000000     0.400050000000     0.877960000000     0.0148703  
C546     C      0.897790000000     0.375240000000     0.903070000000     0.0148792  
C547     C      0.830970000000     0.134080000000     0.819360000000    -0.023304   
C548     C      0.922310000000     0.110080000000     0.930610000000    -0.023323   
C549     C      0.922180000000     0.066560000000     0.886570000000    -0.0233785  
C550     C      0.897790000000     0.094110000000     0.877920000000     0.014908   
C551     C      0.897870000000     0.118930000000     0.903030000000     0.0148488  
C552     C      0.876730000000     0.147600000000     0.900800000000    -0.0658419  
C553     C      0.831110000000     0.177600000000     0.863390000000    -0.0232774  
C554     C      0.876570000000     0.096570000000     0.849160000000    -0.0658631  
C555     C      0.855510000000     0.150060000000     0.872040000000     0.0148525  
C556     C      0.855430000000     0.125240000000     0.846930000000     0.0148456  
C557     C      0.586690000000     0.430980000000     0.889960000000    -0.0235976  
C558     C      0.666460000000     0.313100000000     0.860030000000    -0.0236287  
C559     C      0.666320000000     0.356430000000     0.815830000000    -0.0235781  
C560     C      0.644740000000     0.367030000000     0.845130000000     0.0146971  
C561     C      0.644820000000     0.342320000000     0.870340000000     0.0147482  
C562     C      0.626650000000     0.346640000000     0.900920000000    -0.0658656  
C563     C      0.586830000000     0.387640000000     0.934160000000    -0.0236646  
C564     C      0.626490000000     0.397430000000     0.849070000000    -0.0657954  
C565     C      0.608400000000     0.377040000000     0.904850000000     0.0147668  
C566     C      0.608320000000     0.401740000000     0.879640000000     0.0147014  
C567     C      0.831060000000     0.316540000000     0.636600000000    -0.0232689  
C568     C      0.922140000000     0.427580000000     0.613420000000    -0.0233536  
C569     C      0.922270000000     0.384050000000     0.569380000000    -0.0234345  
C570     C      0.897820000000     0.375210000000     0.596960000000     0.0148873  
C571     C      0.897750000000     0.400030000000     0.622070000000     0.0148616  
C572     C      0.876520000000     0.397570000000     0.650830000000    -0.0658473  
C573     C      0.830930000000     0.360060000000     0.680630000000    -0.0233041  
C574     C      0.876680000000     0.346540000000     0.599190000000    -0.0658671  
C575     C      0.855380000000     0.368900000000     0.653060000000     0.0148355  
C576     C      0.855460000000     0.344080000000     0.627950000000     0.0148517  
C577     C      0.958940000000     0.935350000000     0.061930000000     0.398136   
C578     C      0.958960000000     0.558770000000     0.438070000000     0.398391   
C579     C      0.958930000000     0.558760000000     0.061920000000     0.398239   
C580     C      0.958920000000     0.935360000000     0.438090000000     0.39801    
C581     C      0.549570000000     0.938580000000     0.441260000000     0.392169   
C582     C      0.549570000000     0.555520000000     0.058750000000     0.39209    
C583     C      0.549580000000     0.938590000000     0.058740000000     0.392215   
C584     C      0.549590000000     0.555510000000     0.441280000000     0.392176   
C585     C      0.794260000000     0.808760000000     0.188080000000     0.398537   
C586     C      0.794290000000     0.685370000000     0.311920000000     0.398254   
C587     C      0.794250000000     0.808770000000     0.311940000000     0.398403   
C588     C      0.794260000000     0.685350000000     0.188080000000     0.398329   
C589     C      0.703620000000     0.688590000000     0.191280000000     0.392044   
C590     C      0.703610000000     0.805510000000     0.308740000000     0.392101   
C591     C      0.703630000000     0.805520000000     0.191270000000     0.392252   
C592     C      0.703640000000     0.688580000000     0.308750000000     0.39222    
C593     C      0.666340000000     0.637660000000     0.184180000000    -0.0236096  
C594     C      0.586860000000     0.606450000000     0.065850000000    -0.0236236  
C595     C      0.586710000000     0.563120000000     0.110050000000    -0.0235748  
C596     C      0.608360000000     0.592340000000     0.120360000000     0.014701   
C597     C      0.608430000000     0.617050000000     0.095150000000     0.0147477  
C598     C      0.626680000000     0.647450000000     0.099090000000    -0.0658903  
C599     C      0.666480000000     0.681000000000     0.139970000000    -0.0237536  
C600     C      0.626520000000     0.596660000000     0.150940000000    -0.0658321  
C601     C      0.644850000000     0.651760000000     0.129660000000     0.0147949  
C602     C      0.644770000000     0.627060000000     0.154870000000     0.0147065  
C603     C      0.586880000000     0.606440000000     0.434190000000    -0.0236808  
C604     C      0.666370000000     0.637650000000     0.315850000000    -0.0235644  
C605     C      0.666510000000     0.680980000000     0.360060000000    -0.0236265  
C606     C      0.644870000000     0.651750000000     0.370370000000     0.0147521  
C607     C      0.644790000000     0.627050000000     0.345160000000     0.0146771  
C608     C      0.626550000000     0.596640000000     0.349100000000    -0.0657852  
C609     C      0.586740000000     0.563100000000     0.389980000000    -0.0235913  
C610     C      0.626700000000     0.647440000000     0.400940000000    -0.065835   
C611     C      0.608370000000     0.592330000000     0.379670000000     0.0147031  
C612     C      0.608460000000     0.617030000000     0.404880000000     0.0147493  
C613     C      0.666350000000     0.856450000000     0.184170000000    -0.0235368  
C614     C      0.586860000000     0.887670000000     0.065830000000    -0.0235982  
C615     C      0.586720000000     0.931000000000     0.110040000000    -0.0235977  
C616     C      0.608360000000     0.901770000000     0.120350000000     0.0147178  
C617     C      0.608440000000     0.877070000000     0.095140000000     0.0146895  
C618     C      0.626690000000     0.846660000000     0.099080000000    -0.0658239  
C619     C      0.666490000000     0.813120000000     0.139960000000    -0.0236719  
C620     C      0.626530000000     0.897460000000     0.150920000000    -0.0657996  
C621     C      0.644860000000     0.842350000000     0.129650000000     0.0147675  
C622     C      0.644780000000     0.867060000000     0.154860000000     0.0146662  
C623     C      0.922130000000     0.566530000000     0.113410000000    -0.0233755  
C624     C      0.831050000000     0.677570000000     0.136590000000    -0.0232948  
C625     C      0.830920000000     0.634050000000     0.180620000000    -0.0233067  
C626     C      0.855360000000     0.625210000000     0.153040000000     0.014844   
C627     C      0.855440000000     0.650020000000     0.127930000000     0.0148267  
C628     C      0.876670000000     0.647560000000     0.099170000000    -0.0658491  
C629     C      0.922260000000     0.610050000000     0.069370000000    -0.0233138  
C630     C      0.876500000000     0.596540000000     0.150810000000    -0.0658262  
C631     C      0.897800000000     0.618890000000     0.096950000000     0.0148517  
C632     C      0.897730000000     0.594080000000     0.122060000000     0.0148655  
C633     C      0.922250000000     0.884070000000     0.430650000000    -0.0233978  
C634     C      0.830900000000     0.860080000000     0.319400000000    -0.0233181  
C635     C      0.831040000000     0.816550000000     0.363430000000    -0.0233533  
C636     C      0.855430000000     0.844100000000     0.372090000000     0.0148835  
C637     C      0.855350000000     0.868920000000     0.346980000000     0.0148387  
C638     C      0.876490000000     0.897590000000     0.349200000000    -0.0658613  
C639     C      0.922110000000     0.927600000000     0.386610000000    -0.0233805  
C640     C      0.876650000000     0.846560000000     0.400840000000    -0.0658711  
C641     C      0.897710000000     0.900050000000     0.377960000000     0.014875   
C642     C      0.897790000000     0.875240000000     0.403070000000     0.014862   
C643     C      0.830970000000     0.634080000000     0.319360000000    -0.0232931  
C644     C      0.922310000000     0.610080000000     0.430610000000    -0.0233212  
C645     C      0.922180000000     0.566560000000     0.386570000000    -0.0233647  
C646     C      0.897790000000     0.594110000000     0.377920000000     0.0148771  
C647     C      0.897870000000     0.618930000000     0.403030000000     0.0148494  
C648     C      0.876730000000     0.647600000000     0.400800000000    -0.065853   
C649     C      0.831110000000     0.677600000000     0.363390000000    -0.0232831  
C650     C      0.876570000000     0.596570000000     0.349160000000    -0.0658176  
C651     C      0.855510000000     0.650060000000     0.372040000000     0.0148579  
C652     C      0.855430000000     0.625240000000     0.346930000000     0.0148201  
C653     C      0.586690000000     0.930980000000     0.389960000000    -0.02355    
C654     C      0.666460000000     0.813100000000     0.360040000000    -0.0237279  
C655     C      0.666320000000     0.856430000000     0.315830000000    -0.0235751  
C656     C      0.644740000000     0.867030000000     0.345130000000     0.0146885  
C657     C      0.644820000000     0.842320000000     0.370340000000     0.0147866  
C658     C      0.626650000000     0.846640000000     0.400920000000    -0.0658851  
C659     C      0.586830000000     0.887640000000     0.434160000000    -0.0236395  
C660     C      0.626490000000     0.897430000000     0.349070000000    -0.0658246  
C661     C      0.608400000000     0.877040000000     0.404850000000     0.0147623  
C662     C      0.608320000000     0.901750000000     0.379640000000     0.0146914  
C663     C      0.831060000000     0.816530000000     0.136600000000    -0.0233282  
C664     C      0.922140000000     0.927580000000     0.113420000000    -0.0233453  
C665     C      0.922270000000     0.884060000000     0.069380000000    -0.023332   
C666     C      0.897820000000     0.875210000000     0.096960000000     0.0148455  
C667     C      0.897750000000     0.900030000000     0.122070000000     0.014846   
C668     C      0.876520000000     0.897570000000     0.150830000000    -0.0658052  
C669     C      0.830930000000     0.860060000000     0.180630000000    -0.0232785  
C670     C      0.876680000000     0.846540000000     0.099190000000    -0.065866   
C671     C      0.855380000000     0.868900000000     0.153060000000     0.0148062  
C672     C      0.855460000000     0.844080000000     0.127950000000     0.0148705  
C673     C      0.958940000000     0.935350000000     0.561930000000     0.39814    
C674     C      0.958960000000     0.558770000000     0.938070000000     0.398385   
C675     C      0.958930000000     0.558760000000     0.561920000000     0.398246   
C676     C      0.958920000000     0.935360000000     0.938090000000     0.398118   
C677     C      0.549570000000     0.938580000000     0.941270000000     0.392077   
C678     C      0.549570000000     0.555520000000     0.558750000000     0.392094   
C679     C      0.549580000000     0.938590000000     0.558740000000     0.39222    
C680     C      0.549590000000     0.555510000000     0.941280000000     0.392113   
C681     C      0.794260000000     0.808760000000     0.688090000000     0.398581   
C682     C      0.794290000000     0.685370000000     0.811920000000     0.398255   
C683     C      0.794250000000     0.808770000000     0.811940000000     0.398402   
C684     C      0.794260000000     0.685350000000     0.688080000000     0.398328   
C685     C      0.703620000000     0.688590000000     0.691280000000     0.392044   
C686     C      0.703610000000     0.805510000000     0.808740000000     0.392104   
C687     C      0.703630000000     0.805520000000     0.691270000000     0.392252   
C688     C      0.703640000000     0.688580000000     0.808750000000     0.392219   
C689     C      0.666340000000     0.637660000000     0.684180000000    -0.023609   
C690     C      0.586860000000     0.606450000000     0.565850000000    -0.0236289  
C691     C      0.586710000000     0.563120000000     0.610050000000    -0.0235738  
C692     C      0.608360000000     0.592340000000     0.620360000000     0.0146999  
C693     C      0.608430000000     0.617050000000     0.595150000000     0.0147576  
C694     C      0.626680000000     0.647450000000     0.599090000000    -0.0658913  
C695     C      0.666480000000     0.681000000000     0.639970000000    -0.0237562  
C696     C      0.626520000000     0.596660000000     0.650940000000    -0.0658293  
C697     C      0.644850000000     0.651760000000     0.629660000000     0.0148011  
C698     C      0.644770000000     0.627060000000     0.654870000000     0.0147051  
C699     C      0.586880000000     0.606440000000     0.934190000000    -0.0237286  
C700     C      0.666370000000     0.637650000000     0.815850000000    -0.0235626  
C701     C      0.666510000000     0.680980000000     0.860060000000    -0.023631   
C702     C      0.644870000000     0.651750000000     0.870370000000     0.014763   
C703     C      0.644790000000     0.627050000000     0.845160000000     0.0146724  
C704     C      0.626550000000     0.596640000000     0.849100000000    -0.0657777  
C705     C      0.586740000000     0.563100000000     0.889980000000    -0.0235813  
C706     C      0.626700000000     0.647440000000     0.900940000000    -0.0658448  
C707     C      0.608370000000     0.592330000000     0.879670000000     0.0146944  
C708     C      0.608460000000     0.617030000000     0.904880000000     0.014778   
C709     C      0.666350000000     0.856450000000     0.684170000000    -0.0235361  
C710     C      0.586860000000     0.887670000000     0.565830000000    -0.0236034  
C711     C      0.586720000000     0.931000000000     0.610040000000    -0.0235967  
C712     C      0.608360000000     0.901770000000     0.620350000000     0.0147167  
C713     C      0.608440000000     0.877070000000     0.595140000000     0.0146995  
C714     C      0.626690000000     0.846660000000     0.599080000000    -0.0658248  
C715     C      0.666490000000     0.813120000000     0.639960000000    -0.0236745  
C716     C      0.626530000000     0.897460000000     0.650920000000    -0.0657967  
C717     C      0.644860000000     0.842350000000     0.629650000000     0.0147737  
C718     C      0.644780000000     0.867060000000     0.654860000000     0.014665   
C719     C      0.922130000000     0.566530000000     0.613400000000    -0.0232741  
C720     C      0.831050000000     0.677570000000     0.636590000000    -0.0233003  
C721     C      0.830920000000     0.634050000000     0.680620000000    -0.0233031  
C722     C      0.855360000000     0.625210000000     0.653040000000     0.0148345  
C723     C      0.855440000000     0.650020000000     0.627930000000     0.0148406  
C724     C      0.876670000000     0.647560000000     0.599180000000    -0.065823   
C725     C      0.922260000000     0.610050000000     0.569370000000    -0.0233177  
C726     C      0.876500000000     0.596540000000     0.650810000000    -0.0658045  
C727     C      0.897800000000     0.618890000000     0.596950000000     0.0148588  
C728     C      0.897730000000     0.594080000000     0.622060000000     0.0148246  
C729     C      0.922250000000     0.884070000000     0.930650000000    -0.0233984  
C730     C      0.830900000000     0.860080000000     0.819400000000    -0.0233175  
C731     C      0.831040000000     0.816550000000     0.863430000000    -0.0233563  
C732     C      0.855430000000     0.844100000000     0.872090000000     0.0148905  
C733     C      0.855350000000     0.868920000000     0.846980000000     0.0148373  
C734     C      0.876490000000     0.897590000000     0.849200000000    -0.0658577  
C735     C      0.922110000000     0.927600000000     0.886610000000    -0.0233753  
C736     C      0.876650000000     0.846560000000     0.900840000000    -0.0658715  
C737     C      0.897710000000     0.900050000000     0.877960000000     0.0148734  
C738     C      0.897790000000     0.875240000000     0.903070000000     0.0148719  
C739     C      0.830970000000     0.634080000000     0.819360000000    -0.0232927  
C740     C      0.922310000000     0.610080000000     0.930610000000    -0.0233275  
C741     C      0.922180000000     0.566560000000     0.886570000000    -0.0233638  
C742     C      0.897790000000     0.594110000000     0.877920000000     0.0148763  
C743     C      0.897870000000     0.618930000000     0.903030000000     0.0148602  
C744     C      0.876730000000     0.647600000000     0.900800000000    -0.0658532  
C745     C      0.831110000000     0.677600000000     0.863390000000    -0.0232811  
C746     C      0.876570000000     0.596570000000     0.849160000000    -0.0658149  
C747     C      0.855510000000     0.650060000000     0.872040000000     0.0148629  
C748     C      0.855430000000     0.625240000000     0.846930000000     0.0148201  
C749     C      0.586690000000     0.930980000000     0.889960000000    -0.0235964  
C750     C      0.666460000000     0.813100000000     0.860030000000    -0.0236257  
C751     C      0.666320000000     0.856430000000     0.815830000000    -0.0235819  
C752     C      0.644740000000     0.867030000000     0.845130000000     0.0147088  
C753     C      0.644820000000     0.842320000000     0.870340000000     0.0147417  
C754     C      0.626650000000     0.846640000000     0.900920000000    -0.0658616  
C755     C      0.586830000000     0.887640000000     0.934160000000    -0.0236591  
C756     C      0.626490000000     0.897430000000     0.849070000000    -0.0658386  
C757     C      0.608400000000     0.877040000000     0.904850000000     0.0147617  
C758     C      0.608320000000     0.901750000000     0.879640000000     0.0147123  
C759     C      0.831060000000     0.816530000000     0.636600000000    -0.0233307  
C760     C      0.922140000000     0.927580000000     0.613420000000    -0.0233448  
C761     C      0.922270000000     0.884060000000     0.569380000000    -0.0233367  
C762     C      0.897820000000     0.875210000000     0.596960000000     0.0148541  
C763     C      0.897750000000     0.900030000000     0.622070000000     0.0148459  
C764     C      0.876520000000     0.897570000000     0.650830000000    -0.0658046  
C765     C      0.830930000000     0.860060000000     0.680630000000    -0.0232917  
C766     C      0.876680000000     0.846540000000     0.599190000000    -0.0658653  
C767     C      0.855380000000     0.868900000000     0.653060000000     0.0148093  
C768     C      0.855460000000     0.844080000000     0.627950000000     0.0148739  
Co1      Co     0.501740000000     0.446780000000     0.500010000000     0.839852   
Co2      Co     0.001740000000     0.047330000000     0.000010000000     0.839089   
Co3      Co     0.501670000000     0.497060000000     0.050690000000     0.83693    
Co4      Co     0.001680000000     0.497060000000     0.449320000000     0.83628    
Co5      Co     0.251530000000     0.247060000000     0.199320000000     0.836909   
Co6      Co     0.251530000000     0.247060000000     0.300690000000     0.836845   
Co7      Co     0.251460000000     0.297330000000     0.250010000000     0.839761   
Co8      Co     0.251470000000     0.196780000000     0.250010000000     0.839825   
Co9      Co     0.501740000000     0.446780000000     0.000010000000     0.839697   
Co10     Co     0.001740000000     0.047330000000     0.500010000000     0.839259   
Co11     Co     0.501670000000     0.497060000000     0.550690000000     0.836916   
Co12     Co     0.001680000000     0.497060000000     0.949320000000     0.836384   
Co13     Co     0.251530000000     0.247060000000     0.699320000000     0.836899   
Co14     Co     0.251530000000     0.247060000000     0.800690000000     0.836844   
Co15     Co     0.251460000000     0.297330000000     0.750010000000     0.839773   
Co16     Co     0.251470000000     0.196780000000     0.750010000000     0.839825   
Co17     Co     0.501740000000     0.946780000000     0.500010000000     0.83987    
Co18     Co     0.001740000000     0.547330000000     0.000010000000     0.838921   
Co19     Co     0.501670000000     0.997060000000     0.050690000000     0.836789   
Co20     Co     0.001680000000     0.997060000000     0.449320000000     0.836124   
Co21     Co     0.251530000000     0.747060000000     0.199320000000     0.836904   
Co22     Co     0.251530000000     0.747060000000     0.300690000000     0.836868   
Co23     Co     0.251460000000     0.797340000000     0.250010000000     0.839894   
Co24     Co     0.251470000000     0.696780000000     0.250010000000     0.839826   
Co25     Co     0.501740000000     0.946780000000     0.000010000000     0.839715   
Co26     Co     0.001740000000     0.547330000000     0.500010000000     0.83909    
Co27     Co     0.501670000000     0.997060000000     0.550690000000     0.836776   
Co28     Co     0.001680000000     0.997060000000     0.949320000000     0.836229   
Co29     Co     0.251530000000     0.747060000000     0.699320000000     0.836893   
Co30     Co     0.251530000000     0.747060000000     0.800690000000     0.836867   
Co31     Co     0.251460000000     0.797340000000     0.750010000000     0.839906   
Co32     Co     0.251470000000     0.696780000000     0.750010000000     0.839825   
Co33     Co     0.001740000000     0.446780000000     0.500010000000     0.839196   
Co34     Co     0.501740000000     0.047330000000     0.000010000000     0.839747   
Co35     Co     0.001670000000     0.497060000000     0.050690000000     0.836277   
Co36     Co     0.501680000000     0.497060000000     0.449320000000     0.836936   
Co37     Co     0.751530000000     0.247060000000     0.199320000000     0.836914   
Co38     Co     0.751530000000     0.247060000000     0.300690000000     0.836845   
Co39     Co     0.751460000000     0.297330000000     0.250010000000     0.839705   
Co40     Co     0.751470000000     0.196780000000     0.250010000000     0.839876   
Co41     Co     0.001740000000     0.446780000000     0.000010000000     0.839042   
Co42     Co     0.501740000000     0.047330000000     0.500010000000     0.839917   
Co43     Co     0.001670000000     0.497060000000     0.550690000000     0.836263   
Co44     Co     0.501680000000     0.497060000000     0.949320000000     0.837041   
Co45     Co     0.751530000000     0.247060000000     0.699320000000     0.836903   
Co46     Co     0.751530000000     0.247060000000     0.800690000000     0.836843   
Co47     Co     0.751460000000     0.297330000000     0.750010000000     0.839718   
Co48     Co     0.751470000000     0.196780000000     0.750010000000     0.839875   
Co49     Co     0.001740000000     0.946780000000     0.500010000000     0.839214   
Co50     Co     0.501740000000     0.547330000000     0.000010000000     0.839579   
Co51     Co     0.001670000000     0.997060000000     0.050690000000     0.836136   
Co52     Co     0.501680000000     0.997060000000     0.449320000000     0.83678    
Co53     Co     0.751530000000     0.747060000000     0.199320000000     0.836909   
Co54     Co     0.751530000000     0.747060000000     0.300690000000     0.836867   
Co55     Co     0.751460000000     0.797340000000     0.250010000000     0.839839   
Co56     Co     0.751470000000     0.696780000000     0.250010000000     0.839877   
Co57     Co     0.001740000000     0.946780000000     0.000010000000     0.83906    
Co58     Co     0.501740000000     0.547330000000     0.500010000000     0.839748   
Co59     Co     0.001670000000     0.997060000000     0.550690000000     0.836122   
Co60     Co     0.501680000000     0.997060000000     0.949320000000     0.836885   
Co61     Co     0.751530000000     0.747060000000     0.699320000000     0.836898   
Co62     Co     0.751530000000     0.747060000000     0.800690000000     0.836866   
Co63     Co     0.751460000000     0.797340000000     0.750010000000     0.839851   
Co64     Co     0.751470000000     0.696780000000     0.750010000000     0.839876   
H1       H      0.065550000000     0.058850000000     0.128570000000     0.0493042  
H2       H      0.065770000000     0.124870000000     0.061230000000     0.0493858  
H3       H      0.126730000000     0.166740000000     0.079400000000     0.0453321  
H4       H      0.126460000000     0.077370000000     0.170630000000     0.0453481  
H5       H      0.150850000000     0.140000000000     0.207880000000     0.0458854  
H6       H      0.187640000000     0.185260000000     0.121460000000     0.0493999  
H7       H      0.102130000000     0.039470000000     0.108080000000     0.0458755  
H8       H      0.102340000000     0.104120000000     0.042140000000     0.0458673  
H9       H      0.151060000000     0.204630000000     0.141940000000     0.0458777  
H10      H      0.187430000000     0.119250000000     0.188800000000     0.0494932  
H11      H      0.187670000000     0.185240000000     0.378580000000     0.0493741  
H12      H      0.187450000000     0.119230000000     0.311240000000     0.049473   
H13      H      0.126490000000     0.077350000000     0.329400000000     0.0453255  
H14      H      0.126760000000     0.166730000000     0.420640000000     0.0453167  
H15      H      0.102370000000     0.104100000000     0.457890000000     0.0458879  
H16      H      0.065580000000     0.058830000000     0.371460000000     0.0493257  
H17      H      0.151090000000     0.204620000000     0.358090000000     0.0458746  
H18      H      0.150880000000     0.139980000000     0.292150000000     0.0458769  
H19      H      0.102170000000     0.039460000000     0.391950000000     0.0458921  
H20      H      0.065800000000     0.124850000000     0.438810000000     0.0494145  
H21      H      0.102140000000     0.454640000000     0.108070000000     0.0458657  
H22      H      0.102350000000     0.390000000000     0.042130000000     0.0458655  
H23      H      0.126740000000     0.327370000000     0.079380000000     0.0453052  
H24      H      0.126470000000     0.416750000000     0.170620000000     0.0453109  
H25      H      0.187440000000     0.374870000000     0.188790000000     0.0494503  
H26      H      0.151070000000     0.289480000000     0.141930000000     0.0458784  
H27      H      0.065560000000     0.435260000000     0.128560000000     0.0493076  
H28      H      0.065780000000     0.369250000000     0.061220000000     0.0494041  
H29      H      0.187650000000     0.308850000000     0.121450000000     0.0493839  
H30      H      0.150860000000     0.354120000000     0.207870000000     0.0458639  
H31      H      0.344170000000     0.136470000000     0.205640000000     0.0474687  
H32      H      0.344370000000     0.202410000000     0.138920000000     0.0474047  
H33      H      0.376730000000     0.166940000000     0.079570000000     0.0454135  
H34      H      0.376440000000     0.077160000000     0.170420000000     0.0454404  
H35      H      0.442540000000     0.064250000000     0.133060000000     0.04781    
H36      H      0.409010000000     0.107630000000     0.044350000000     0.0474431  
H37      H      0.310430000000     0.114590000000     0.182960000000     0.0478366  
H38      H      0.310630000000     0.179850000000     0.116940000000     0.047783   
H39      H      0.442740000000     0.129510000000     0.067030000000     0.0478216  
H40      H      0.408810000000     0.041680000000     0.111070000000     0.047435   
H41      H      0.310610000000     0.314280000000     0.383080000000     0.0477901  
H42      H      0.310410000000     0.379530000000     0.317050000000     0.0478075  
H43      H      0.376430000000     0.416960000000     0.329590000000     0.0454253  
H44      H      0.376720000000     0.327190000000     0.420450000000     0.0454315  
H45      H      0.409000000000     0.386500000000     0.455660000000     0.0475032  
H46      H      0.442530000000     0.429870000000     0.366960000000     0.04781    
H47      H      0.344360000000     0.291710000000     0.361100000000     0.0474153  
H48      H      0.344150000000     0.357660000000     0.294380000000     0.0474449  
H49      H      0.408800000000     0.452440000000     0.388950000000     0.0474349  
H50      H      0.442730000000     0.364610000000     0.432980000000     0.0478585  
H51      H      0.442600000000     0.064280000000     0.366930000000     0.0478279  
H52      H      0.442810000000     0.129540000000     0.432950000000     0.0478135  
H53      H      0.376790000000     0.166970000000     0.420410000000     0.0454214  
H54      H      0.376500000000     0.077200000000     0.329550000000     0.0454468  
H55      H      0.344210000000     0.136500000000     0.294340000000     0.0474716  
H56      H      0.310690000000     0.179880000000     0.383050000000     0.0477837  
H57      H      0.408860000000     0.041720000000     0.388900000000     0.0474589  
H58      H      0.409060000000     0.107670000000     0.455620000000     0.0474565  
H59      H      0.344420000000     0.202450000000     0.361050000000     0.0474034  
H60      H      0.310490000000     0.114610000000     0.317020000000     0.0478381  
H61      H      0.187400000000     0.374850000000     0.311210000000     0.0494709  
H62      H      0.187620000000     0.308840000000     0.378550000000     0.0494123  
H63      H      0.126710000000     0.327350000000     0.420610000000     0.0453525  
H64      H      0.126440000000     0.416730000000     0.329380000000     0.0453077  
H65      H      0.102120000000     0.454610000000     0.391920000000     0.045865   
H66      H      0.065750000000     0.369230000000     0.438780000000     0.0494326  
H67      H      0.150840000000     0.354090000000     0.292120000000     0.0458744  
H68      H      0.151050000000     0.289460000000     0.358060000000     0.0459042  
H69      H      0.102330000000     0.389980000000     0.457860000000     0.0459132  
H70      H      0.065530000000     0.435240000000     0.371440000000     0.0492966  
H71      H      0.409020000000     0.386480000000     0.044370000000     0.0474844  
H72      H      0.408820000000     0.452420000000     0.111080000000     0.0474283  
H73      H      0.376450000000     0.416940000000     0.170440000000     0.0454291  
H74      H      0.376750000000     0.327170000000     0.079580000000     0.0454167  
H75      H      0.310640000000     0.314260000000     0.116950000000     0.0477669  
H76      H      0.344170000000     0.357640000000     0.205650000000     0.0474716  
H77      H      0.442760000000     0.364600000000     0.067040000000     0.0478535  
H78      H      0.442560000000     0.429860000000     0.133070000000     0.0477997  
H79      H      0.310440000000     0.379520000000     0.182970000000     0.0478232  
H80      H      0.344380000000     0.291690000000     0.138930000000     0.0473891  
H81      H      0.065550000000     0.058850000000     0.628570000000     0.0493033  
H82      H      0.065770000000     0.124870000000     0.561230000000     0.0493996  
H83      H      0.126730000000     0.166740000000     0.579400000000     0.0453458  
H84      H      0.126460000000     0.077370000000     0.670630000000     0.0453477  
H85      H      0.150850000000     0.140000000000     0.707880000000     0.0458846  
H86      H      0.187640000000     0.185260000000     0.621460000000     0.0494078  
H87      H      0.102130000000     0.039470000000     0.608080000000     0.0458804  
H88      H      0.102340000000     0.104120000000     0.542140000000     0.045893   
H89      H      0.151060000000     0.204630000000     0.641940000000     0.045881   
H90      H      0.187430000000     0.119250000000     0.688800000000     0.0494943  
H91      H      0.187670000000     0.185240000000     0.878580000000     0.0493831  
H92      H      0.187450000000     0.119230000000     0.811240000000     0.0494739  
H93      H      0.126490000000     0.077350000000     0.829400000000     0.0453245  
H94      H      0.126760000000     0.166730000000     0.920640000000     0.0453342  
H95      H      0.102370000000     0.104100000000     0.957890000000     0.0459197  
H96      H      0.065580000000     0.058830000000     0.871470000000     0.0493367  
H97      H      0.151090000000     0.204620000000     0.858090000000     0.045879   
H98      H      0.150880000000     0.139980000000     0.792150000000     0.0458759  
H99      H      0.102170000000     0.039460000000     0.891950000000     0.0458928  
H100     H      0.065800000000     0.124850000000     0.938810000000     0.0494384  
H101     H      0.102140000000     0.454640000000     0.608070000000     0.0458706  
H102     H      0.102350000000     0.390000000000     0.542130000000     0.0458907  
H103     H      0.126740000000     0.327370000000     0.579380000000     0.0453189  
H104     H      0.126470000000     0.416750000000     0.670620000000     0.0453107  
H105     H      0.187440000000     0.374870000000     0.688790000000     0.0494523  
H106     H      0.151070000000     0.289480000000     0.641930000000     0.0458817  
H107     H      0.065560000000     0.435260000000     0.628560000000     0.0493066  
H108     H      0.065780000000     0.369250000000     0.561220000000     0.0494172  
H109     H      0.187650000000     0.308850000000     0.621450000000     0.0493925  
H110     H      0.150860000000     0.354120000000     0.707870000000     0.0458631  
H111     H      0.344170000000     0.136470000000     0.705640000000     0.0474671  
H112     H      0.344370000000     0.202410000000     0.638920000000     0.0474088  
H113     H      0.376730000000     0.166940000000     0.579570000000     0.0454061  
H114     H      0.376440000000     0.077160000000     0.670420000000     0.0454344  
H115     H      0.442540000000     0.064250000000     0.633060000000     0.0477757  
H116     H      0.409010000000     0.107630000000     0.544350000000     0.0474649  
H117     H      0.310430000000     0.114590000000     0.682960000000     0.0478373  
H118     H      0.310630000000     0.179850000000     0.616940000000     0.047792   
H119     H      0.442740000000     0.129510000000     0.567030000000     0.047833   
H120     H      0.408810000000     0.041680000000     0.611070000000     0.0474098  
H121     H      0.310610000000     0.314280000000     0.883080000000     0.0477997  
H122     H      0.310410000000     0.379530000000     0.817050000000     0.0478095  
H123     H      0.376430000000     0.416960000000     0.829590000000     0.0454249  
H124     H      0.376720000000     0.327190000000     0.920450000000     0.0454463  
H125     H      0.409000000000     0.386500000000     0.955660000000     0.0475278  
H126     H      0.442530000000     0.429870000000     0.866960000000     0.0478041  
H127     H      0.344360000000     0.291710000000     0.861100000000     0.0474194  
H128     H      0.344150000000     0.357660000000     0.794380000000     0.0474441  
H129     H      0.408800000000     0.452440000000     0.888950000000     0.0474375  
H130     H      0.442730000000     0.364610000000     0.932980000000     0.0478706  
H131     H      0.442600000000     0.064280000000     0.866930000000     0.0478267  
H132     H      0.442810000000     0.129540000000     0.932950000000     0.0478272  
H133     H      0.376790000000     0.166970000000     0.920410000000     0.0454357  
H134     H      0.376500000000     0.077200000000     0.829550000000     0.0454467  
H135     H      0.344210000000     0.136500000000     0.794340000000     0.0474711  
H136     H      0.310690000000     0.179880000000     0.883050000000     0.0477909  
H137     H      0.408860000000     0.041720000000     0.888900000000     0.0474645  
H138     H      0.409060000000     0.107670000000     0.955620000000     0.047483   
H139     H      0.344420000000     0.202450000000     0.861060000000     0.047401   
H140     H      0.310490000000     0.114610000000     0.817020000000     0.0478398  
H141     H      0.187400000000     0.374850000000     0.811210000000     0.0494735  
H142     H      0.187620000000     0.308840000000     0.878550000000     0.0493866  
H143     H      0.126710000000     0.327350000000     0.920610000000     0.0453606  
H144     H      0.126440000000     0.416730000000     0.829380000000     0.0453122  
H145     H      0.102120000000     0.454610000000     0.891920000000     0.0458823  
H146     H      0.065750000000     0.369230000000     0.938780000000     0.0494541  
H147     H      0.150840000000     0.354090000000     0.792120000000     0.045875   
H148     H      0.151050000000     0.289460000000     0.858060000000     0.0458778  
H149     H      0.102330000000     0.389980000000     0.957860000000     0.0459416  
H150     H      0.065530000000     0.435240000000     0.871450000000     0.0493271  
H151     H      0.409020000000     0.386480000000     0.544370000000     0.0475073  
H152     H      0.408820000000     0.452420000000     0.611080000000     0.0474325  
H153     H      0.376450000000     0.416940000000     0.670440000000     0.0454295  
H154     H      0.376750000000     0.327170000000     0.579580000000     0.0454299  
H155     H      0.310640000000     0.314260000000     0.616950000000     0.0477792  
H156     H      0.344170000000     0.357640000000     0.705650000000     0.0474721  
H157     H      0.442760000000     0.364600000000     0.567040000000     0.0478654  
H158     H      0.442560000000     0.429860000000     0.633070000000     0.0477988  
H159     H      0.310440000000     0.379520000000     0.682970000000     0.0478298  
H160     H      0.344380000000     0.291690000000     0.638930000000     0.0473927  
H161     H      0.065550000000     0.558860000000     0.128570000000     0.0492962  
H162     H      0.065770000000     0.624860000000     0.061230000000     0.0494179  
H163     H      0.126730000000     0.666740000000     0.079400000000     0.0453391  
H164     H      0.126460000000     0.577370000000     0.170630000000     0.0453331  
H165     H      0.150850000000     0.640000000000     0.207880000000     0.0458821  
H166     H      0.187640000000     0.685260000000     0.121460000000     0.0494186  
H167     H      0.102130000000     0.539470000000     0.108080000000     0.0458555  
H168     H      0.102340000000     0.604110000000     0.042140000000     0.0458802  
H169     H      0.151060000000     0.704630000000     0.141940000000     0.045902   
H170     H      0.187430000000     0.619250000000     0.188800000000     0.0494853  
H171     H      0.187670000000     0.685240000000     0.378580000000     0.0493735  
H172     H      0.187450000000     0.619230000000     0.311240000000     0.0494648  
H173     H      0.126490000000     0.577350000000     0.329400000000     0.04531    
H174     H      0.126760000000     0.666730000000     0.420640000000     0.0453219  
H175     H      0.102370000000     0.604100000000     0.457890000000     0.0459115  
H176     H      0.065580000000     0.558830000000     0.371460000000     0.0493116  
H177     H      0.151090000000     0.704620000000     0.358090000000     0.0458763  
H178     H      0.150880000000     0.639980000000     0.292150000000     0.0458735  
H179     H      0.102170000000     0.539460000000     0.391950000000     0.0458662  
H180     H      0.065800000000     0.624850000000     0.438810000000     0.0494504  
H181     H      0.102140000000     0.954640000000     0.108070000000     0.045843   
H182     H      0.102350000000     0.890000000000     0.042130000000     0.0458618  
H183     H      0.126740000000     0.827370000000     0.079380000000     0.0453057  
H184     H      0.126470000000     0.916750000000     0.170620000000     0.0452981  
H185     H      0.187440000000     0.874870000000     0.188790000000     0.049441   
H186     H      0.151070000000     0.789480000000     0.141930000000     0.0458789  
H187     H      0.065560000000     0.935260000000     0.128560000000     0.0492949  
H188     H      0.065780000000     0.869250000000     0.061220000000     0.0494051  
H189     H      0.187650000000     0.808850000000     0.121450000000     0.0493822  
H190     H      0.150860000000     0.854120000000     0.207870000000     0.0458604  
H191     H      0.344170000000     0.636470000000     0.205640000000     0.0474624  
H192     H      0.344370000000     0.702410000000     0.138920000000     0.0474014  
H193     H      0.376730000000     0.666940000000     0.079570000000     0.0454134  
H194     H      0.376440000000     0.577160000000     0.170420000000     0.045406   
H195     H      0.442540000000     0.564250000000     0.133060000000     0.0478057  
H196     H      0.409010000000     0.607630000000     0.044350000000     0.0474386  
H197     H      0.310430000000     0.614590000000     0.182960000000     0.0478256  
H198     H      0.310630000000     0.679850000000     0.116940000000     0.0477806  
H199     H      0.442740000000     0.629510000000     0.067030000000     0.0478239  
H200     H      0.408810000000     0.541690000000     0.111070000000     0.0474262  
H201     H      0.310610000000     0.814270000000     0.383080000000     0.0477854  
H202     H      0.310410000000     0.879530000000     0.317050000000     0.0478325  
H203     H      0.376430000000     0.916960000000     0.329590000000     0.04542    
H204     H      0.376720000000     0.827190000000     0.420450000000     0.0454289  
H205     H      0.409000000000     0.886500000000     0.455660000000     0.0474993  
H206     H      0.442530000000     0.929870000000     0.366960000000     0.0477998  
H207     H      0.344360000000     0.791710000000     0.361100000000     0.0474116  
H208     H      0.344150000000     0.857660000000     0.294380000000     0.0474708  
H209     H      0.408800000000     0.952440000000     0.388950000000     0.0474146  
H210     H      0.442730000000     0.864610000000     0.432980000000     0.0478589  
H211     H      0.442600000000     0.564280000000     0.366930000000     0.0478137  
H212     H      0.442810000000     0.629540000000     0.432950000000     0.0478157  
H213     H      0.376790000000     0.666970000000     0.420410000000     0.0454237  
H214     H      0.376500000000     0.577190000000     0.329550000000     0.0454078  
H215     H      0.344210000000     0.636500000000     0.294340000000     0.0474668  
H216     H      0.310690000000     0.679880000000     0.383050000000     0.0477827  
H217     H      0.408860000000     0.541720000000     0.388900000000     0.0474326  
H218     H      0.409060000000     0.607670000000     0.455620000000     0.0474526  
H219     H      0.344420000000     0.702450000000     0.361050000000     0.0474046  
H220     H      0.310490000000     0.614610000000     0.317020000000     0.047828   
H221     H      0.187400000000     0.874850000000     0.311210000000     0.0494631  
H222     H      0.187620000000     0.808840000000     0.378550000000     0.0494101  
H223     H      0.126710000000     0.827350000000     0.420610000000     0.0453509  
H224     H      0.126440000000     0.916720000000     0.329380000000     0.0453197  
H225     H      0.102120000000     0.954610000000     0.391920000000     0.0458415  
H226     H      0.065750000000     0.869230000000     0.438780000000     0.0494313  
H227     H      0.150840000000     0.854090000000     0.292120000000     0.0458722  
H228     H      0.151050000000     0.789460000000     0.358060000000     0.0459043  
H229     H      0.102330000000     0.889970000000     0.457860000000     0.0459028  
H230     H      0.065530000000     0.935250000000     0.371440000000     0.0492835  
H231     H      0.409020000000     0.886480000000     0.044370000000     0.0474523  
H232     H      0.408820000000     0.952420000000     0.111080000000     0.0474047  
H233     H      0.376450000000     0.916950000000     0.170440000000     0.0453919  
H234     H      0.376750000000     0.827170000000     0.079580000000     0.0454153  
H235     H      0.310640000000     0.814260000000     0.116950000000     0.0477831  
H236     H      0.344170000000     0.857640000000     0.205650000000     0.0474663  
H237     H      0.442760000000     0.864600000000     0.067040000000     0.0478216  
H238     H      0.442560000000     0.929860000000     0.133070000000     0.0477869  
H239     H      0.310440000000     0.879520000000     0.182970000000     0.047812   
H240     H      0.344380000000     0.791690000000     0.138930000000     0.0474114  
H241     H      0.065550000000     0.558860000000     0.628570000000     0.0492954  
H242     H      0.065770000000     0.624860000000     0.561230000000     0.0494316  
H243     H      0.126730000000     0.666740000000     0.579400000000     0.0453528  
H244     H      0.126460000000     0.577370000000     0.670630000000     0.0453328  
H245     H      0.150850000000     0.640000000000     0.707880000000     0.0458812  
H246     H      0.187640000000     0.685260000000     0.621460000000     0.0494265  
H247     H      0.102130000000     0.539470000000     0.608080000000     0.0458605  
H248     H      0.102340000000     0.604110000000     0.542140000000     0.0459059  
H249     H      0.151060000000     0.704630000000     0.641940000000     0.0459053  
H250     H      0.187430000000     0.619250000000     0.688800000000     0.0494864  
H251     H      0.187670000000     0.685240000000     0.878580000000     0.0493825  
H252     H      0.187450000000     0.619230000000     0.811240000000     0.0494657  
H253     H      0.126490000000     0.577350000000     0.829400000000     0.0453089  
H254     H      0.126760000000     0.666730000000     0.920640000000     0.0453393  
H255     H      0.102370000000     0.604100000000     0.957890000000     0.0459432  
H256     H      0.065580000000     0.558830000000     0.871470000000     0.0493226  
H257     H      0.151090000000     0.704620000000     0.858090000000     0.0458807  
H258     H      0.150880000000     0.639980000000     0.792150000000     0.0458724  
H259     H      0.102170000000     0.539460000000     0.891950000000     0.0458669  
H260     H      0.065800000000     0.624850000000     0.938810000000     0.0494742  
H261     H      0.102140000000     0.954640000000     0.608070000000     0.045848   
H262     H      0.102350000000     0.890000000000     0.542130000000     0.045887   
H263     H      0.126740000000     0.827370000000     0.579380000000     0.0453193  
H264     H      0.126470000000     0.916750000000     0.670620000000     0.0452978  
H265     H      0.187440000000     0.874870000000     0.688790000000     0.049443   
H266     H      0.151070000000     0.789480000000     0.641930000000     0.0458821  
H267     H      0.065560000000     0.935260000000     0.628560000000     0.049294   
H268     H      0.065780000000     0.869250000000     0.561220000000     0.0494183  
H269     H      0.187650000000     0.808850000000     0.621450000000     0.0493908  
H270     H      0.150860000000     0.854120000000     0.707870000000     0.0458596  
H271     H      0.344170000000     0.636470000000     0.705640000000     0.0474608  
H272     H      0.344370000000     0.702410000000     0.638920000000     0.0474054  
H273     H      0.376730000000     0.666940000000     0.579570000000     0.045406   
H274     H      0.376440000000     0.577160000000     0.670420000000     0.0453999  
H275     H      0.442540000000     0.564250000000     0.633060000000     0.0477714  
H276     H      0.409010000000     0.607630000000     0.544350000000     0.0474603  
H277     H      0.310430000000     0.614590000000     0.682960000000     0.0478263  
H278     H      0.310630000000     0.679850000000     0.616940000000     0.0477896  
H279     H      0.442740000000     0.629510000000     0.567030000000     0.0478352  
H280     H      0.408810000000     0.541690000000     0.611070000000     0.0474009  
H281     H      0.310610000000     0.814270000000     0.883080000000     0.047795   
H282     H      0.310410000000     0.879530000000     0.817050000000     0.0478345  
H283     H      0.376430000000     0.916960000000     0.829590000000     0.0454196  
H284     H      0.376720000000     0.827190000000     0.920450000000     0.0454437  
H285     H      0.409000000000     0.886500000000     0.955660000000     0.0475239  
H286     H      0.442530000000     0.929870000000     0.866960000000     0.047794   
H287     H      0.344360000000     0.791710000000     0.861100000000     0.0474157  
H288     H      0.344150000000     0.857660000000     0.794380000000     0.04747    
H289     H      0.408800000000     0.952440000000     0.888950000000     0.0474171  
H290     H      0.442730000000     0.864610000000     0.932980000000     0.047871   
H291     H      0.442600000000     0.564280000000     0.866930000000     0.0478125  
H292     H      0.442810000000     0.629540000000     0.932950000000     0.0478294  
H293     H      0.376790000000     0.666970000000     0.920410000000     0.0454379  
H294     H      0.376500000000     0.577190000000     0.829550000000     0.0454077  
H295     H      0.344210000000     0.636500000000     0.794340000000     0.0474663  
H296     H      0.310690000000     0.679880000000     0.883050000000     0.0477898  
H297     H      0.408860000000     0.541720000000     0.888900000000     0.0474381  
H298     H      0.409060000000     0.607670000000     0.955620000000     0.0474791  
H299     H      0.344420000000     0.702450000000     0.861060000000     0.0474022  
H300     H      0.310490000000     0.614610000000     0.817020000000     0.0478297  
H301     H      0.187400000000     0.874850000000     0.811210000000     0.0494657  
H302     H      0.187620000000     0.808840000000     0.878550000000     0.0493844  
H303     H      0.126710000000     0.827350000000     0.920610000000     0.045359   
H304     H      0.126440000000     0.916720000000     0.829380000000     0.0453242  
H305     H      0.102120000000     0.954610000000     0.891920000000     0.0458587  
H306     H      0.065750000000     0.869230000000     0.938780000000     0.0494528  
H307     H      0.150840000000     0.854090000000     0.792120000000     0.0458728  
H308     H      0.151050000000     0.789460000000     0.858060000000     0.0458779  
H309     H      0.102330000000     0.889970000000     0.957860000000     0.0459311  
H310     H      0.065530000000     0.935250000000     0.871450000000     0.049314   
H311     H      0.409020000000     0.886480000000     0.544370000000     0.0474751  
H312     H      0.408820000000     0.952420000000     0.611080000000     0.0474088  
H313     H      0.376450000000     0.916950000000     0.670440000000     0.0453923  
H314     H      0.376750000000     0.827170000000     0.579580000000     0.0454285  
H315     H      0.310640000000     0.814260000000     0.616950000000     0.0477954  
H316     H      0.344170000000     0.857640000000     0.705650000000     0.0474667  
H317     H      0.442760000000     0.864600000000     0.567040000000     0.0478334  
H318     H      0.442560000000     0.929860000000     0.633070000000     0.047786   
H319     H      0.310440000000     0.879520000000     0.682970000000     0.0478185  
H320     H      0.344380000000     0.791690000000     0.638930000000     0.047415   
H321     H      0.565560000000     0.058850000000     0.128570000000     0.0493733  
H322     H      0.565770000000     0.124870000000     0.061230000000     0.0494452  
H323     H      0.626730000000     0.166740000000     0.079400000000     0.0453478  
H324     H      0.626460000000     0.077370000000     0.170630000000     0.045367   
H325     H      0.650850000000     0.140000000000     0.207880000000     0.0459042  
H326     H      0.687640000000     0.185260000000     0.121460000000     0.0493994  
H327     H      0.602130000000     0.039470000000     0.108080000000     0.0458837  
H328     H      0.602340000000     0.104120000000     0.042140000000     0.0458701  
H329     H      0.651060000000     0.204630000000     0.141940000000     0.0458959  
H330     H      0.687430000000     0.119250000000     0.188800000000     0.0494941  
H331     H      0.687670000000     0.185240000000     0.378580000000     0.0493729  
H332     H      0.687450000000     0.119230000000     0.311240000000     0.0494718  
H333     H      0.626490000000     0.077350000000     0.329400000000     0.0453418  
H334     H      0.626760000000     0.166730000000     0.420640000000     0.0453346  
H335     H      0.602370000000     0.104100000000     0.457890000000     0.045895   
H336     H      0.565580000000     0.058830000000     0.371460000000     0.0493854  
H337     H      0.651090000000     0.204620000000     0.358090000000     0.0458931  
H338     H      0.650880000000     0.139980000000     0.292150000000     0.0458951  
H339     H      0.602170000000     0.039460000000     0.391950000000     0.0458996  
H340     H      0.565800000000     0.124850000000     0.438810000000     0.049474   
H341     H      0.602140000000     0.454640000000     0.108070000000     0.0458743  
H342     H      0.602350000000     0.390000000000     0.042130000000     0.0458676  
H343     H      0.626740000000     0.327370000000     0.079380000000     0.0453211  
H344     H      0.626470000000     0.416750000000     0.170620000000     0.0453282  
H345     H      0.687440000000     0.374870000000     0.188790000000     0.0494484  
H346     H      0.651070000000     0.289480000000     0.141930000000     0.0458969  
H347     H      0.565570000000     0.435260000000     0.128560000000     0.0493767  
H348     H      0.565780000000     0.369250000000     0.061220000000     0.0494633  
H349     H      0.687650000000     0.308850000000     0.121450000000     0.0493817  
H350     H      0.650860000000     0.354120000000     0.207870000000     0.0458861  
H351     H      0.844170000000     0.136470000000     0.205640000000     0.047479   
H352     H      0.844370000000     0.202410000000     0.138920000000     0.0474194  
H353     H      0.876730000000     0.166940000000     0.079570000000     0.0454303  
H354     H      0.876440000000     0.077160000000     0.170420000000     0.0454573  
H355     H      0.942540000000     0.064250000000     0.133060000000     0.0478785  
H356     H      0.909010000000     0.107630000000     0.044350000000     0.047454   
H357     H      0.810430000000     0.114590000000     0.182960000000     0.0478417  
H358     H      0.810630000000     0.179850000000     0.116940000000     0.0477882  
H359     H      0.942740000000     0.129510000000     0.067030000000     0.0478902  
H360     H      0.908810000000     0.041680000000     0.111070000000     0.0474463  
H361     H      0.810610000000     0.314280000000     0.383080000000     0.0477959  
H362     H      0.810410000000     0.379530000000     0.317050000000     0.0478039  
H363     H      0.876420000000     0.416960000000     0.329590000000     0.045441   
H364     H      0.876720000000     0.327190000000     0.420450000000     0.045452   
H365     H      0.909000000000     0.386500000000     0.455660000000     0.0475051  
H366     H      0.942530000000     0.429870000000     0.366960000000     0.0478797  
H367     H      0.844350000000     0.291710000000     0.361100000000     0.047454   
H368     H      0.844150000000     0.357660000000     0.294380000000     0.0474594  
H369     H      0.908800000000     0.452440000000     0.388950000000     0.0474464  
H370     H      0.942730000000     0.364610000000     0.432980000000     0.0479251  
H371     H      0.942610000000     0.064280000000     0.366930000000     0.0478874  
H372     H      0.942810000000     0.129540000000     0.432950000000     0.0478902  
H373     H      0.876800000000     0.166970000000     0.420410000000     0.0454428  
H374     H      0.876500000000     0.077200000000     0.329550000000     0.0454611  
H375     H      0.844210000000     0.136500000000     0.294340000000     0.0474846  
H376     H      0.810690000000     0.179880000000     0.383050000000     0.0477832  
H377     H      0.908860000000     0.041720000000     0.388900000000     0.0474634  
H378     H      0.909070000000     0.107670000000     0.455620000000     0.0474913  
H379     H      0.844420000000     0.202450000000     0.361050000000     0.0474192  
H380     H      0.810490000000     0.114610000000     0.317020000000     0.0478355  
H381     H      0.687400000000     0.374850000000     0.311210000000     0.0494699  
H382     H      0.687620000000     0.308840000000     0.378550000000     0.0494104  
H383     H      0.626710000000     0.327350000000     0.420610000000     0.0453665  
H384     H      0.626440000000     0.416730000000     0.329380000000     0.045325   
H385     H      0.602120000000     0.454610000000     0.391920000000     0.0458688  
H386     H      0.565750000000     0.369230000000     0.438780000000     0.0494886  
H387     H      0.650840000000     0.354090000000     0.292120000000     0.0458945  
H388     H      0.651050000000     0.289460000000     0.358060000000     0.0459222  
H389     H      0.602330000000     0.389980000000     0.457860000000     0.045905   
H390     H      0.565530000000     0.435240000000     0.371440000000     0.0493568  
H391     H      0.909020000000     0.386480000000     0.044370000000     0.0474963  
H392     H      0.908820000000     0.452420000000     0.111080000000     0.0474398  
H393     H      0.876450000000     0.416940000000     0.170440000000     0.0454423  
H394     H      0.876750000000     0.327170000000     0.079580000000     0.0454346  
H395     H      0.810640000000     0.314260000000     0.116950000000     0.0477708  
H396     H      0.844180000000     0.357640000000     0.205650000000     0.0474725  
H397     H      0.942760000000     0.364600000000     0.067040000000     0.0479228  
H398     H      0.942560000000     0.429860000000     0.133070000000     0.0478679  
H399     H      0.810440000000     0.379520000000     0.182970000000     0.0478211  
H400     H      0.844380000000     0.291690000000     0.138930000000     0.0474044  
H401     H      0.565560000000     0.058850000000     0.628570000000     0.0493725  
H402     H      0.565770000000     0.124870000000     0.561230000000     0.0494589  
H403     H      0.626730000000     0.166740000000     0.579400000000     0.0453615  
H404     H      0.626460000000     0.077370000000     0.670630000000     0.0453667  
H405     H      0.650850000000     0.140000000000     0.707880000000     0.0459033  
H406     H      0.687640000000     0.185260000000     0.621460000000     0.0494073  
H407     H      0.602130000000     0.039470000000     0.608080000000     0.0458886  
H408     H      0.602340000000     0.104120000000     0.542140000000     0.0458957  
H409     H      0.651060000000     0.204630000000     0.641940000000     0.0458992  
H410     H      0.687430000000     0.119250000000     0.688800000000     0.0494952  
H411     H      0.687670000000     0.185240000000     0.878580000000     0.0493819  
H412     H      0.687450000000     0.119230000000     0.811240000000     0.0494727  
H413     H      0.626490000000     0.077350000000     0.829400000000     0.0453408  
H414     H      0.626760000000     0.166730000000     0.920640000000     0.045352   
H415     H      0.602370000000     0.104100000000     0.957890000000     0.0459267  
H416     H      0.565580000000     0.058830000000     0.871470000000     0.0493963  
H417     H      0.651090000000     0.204620000000     0.858090000000     0.0458975  
H418     H      0.650880000000     0.139980000000     0.792150000000     0.0458941  
H419     H      0.602170000000     0.039460000000     0.891950000000     0.0459003  
H420     H      0.565800000000     0.124850000000     0.938810000000     0.0494978  
H421     H      0.602140000000     0.454640000000     0.608070000000     0.0458793  
H422     H      0.602350000000     0.390000000000     0.542130000000     0.0458929  
H423     H      0.626740000000     0.327370000000     0.579380000000     0.0453348  
H424     H      0.626470000000     0.416750000000     0.670620000000     0.0453279  
H425     H      0.687440000000     0.374870000000     0.688790000000     0.0494504  
H426     H      0.651070000000     0.289480000000     0.641930000000     0.0459001  
H427     H      0.565570000000     0.435260000000     0.628560000000     0.0493757  
H428     H      0.565780000000     0.369250000000     0.561220000000     0.0494764  
H429     H      0.687650000000     0.308850000000     0.621450000000     0.0493903  
H430     H      0.650860000000     0.354120000000     0.707870000000     0.0458853  
H431     H      0.844170000000     0.136470000000     0.705640000000     0.0474774  
H432     H      0.844370000000     0.202410000000     0.638920000000     0.0474234  
H433     H      0.876730000000     0.166940000000     0.579570000000     0.0454229  
H434     H      0.876440000000     0.077160000000     0.670420000000     0.0454513  
H435     H      0.942540000000     0.064250000000     0.633060000000     0.0478442  
H436     H      0.909010000000     0.107630000000     0.544350000000     0.0474757  
H437     H      0.810430000000     0.114590000000     0.682960000000     0.0478424  
H438     H      0.810630000000     0.179850000000     0.616940000000     0.0477971  
H439     H      0.942740000000     0.129510000000     0.567030000000     0.0479015  
H440     H      0.908810000000     0.041680000000     0.611070000000     0.0474211  
H441     H      0.810610000000     0.314280000000     0.883080000000     0.0478055  
H442     H      0.810410000000     0.379530000000     0.817050000000     0.0478059  
H443     H      0.876420000000     0.416960000000     0.829590000000     0.0454406  
H444     H      0.876720000000     0.327190000000     0.920450000000     0.0454667  
H445     H      0.909000000000     0.386500000000     0.955660000000     0.0475297  
H446     H      0.942530000000     0.429870000000     0.866960000000     0.0478739  
H447     H      0.844350000000     0.291710000000     0.861100000000     0.0474581  
H448     H      0.844150000000     0.357660000000     0.794380000000     0.0474585  
H449     H      0.908800000000     0.452440000000     0.888950000000     0.0474489  
H450     H      0.942730000000     0.364610000000     0.932980000000     0.0479371  
H451     H      0.942610000000     0.064280000000     0.866930000000     0.0478862  
H452     H      0.942810000000     0.129540000000     0.932950000000     0.0479039  
H453     H      0.876800000000     0.166970000000     0.920410000000     0.0454571  
H454     H      0.876500000000     0.077200000000     0.829550000000     0.045461   
H455     H      0.844210000000     0.136500000000     0.794340000000     0.047484   
H456     H      0.810690000000     0.179880000000     0.883050000000     0.0477903  
H457     H      0.908860000000     0.041720000000     0.888900000000     0.0474689  
H458     H      0.909070000000     0.107670000000     0.955620000000     0.0475178  
H459     H      0.844420000000     0.202450000000     0.861060000000     0.0474168  
H460     H      0.810490000000     0.114610000000     0.817020000000     0.0478372  
H461     H      0.687400000000     0.374850000000     0.811210000000     0.0494726  
H462     H      0.687620000000     0.308840000000     0.878550000000     0.0493847  
H463     H      0.626710000000     0.327350000000     0.920610000000     0.0453745  
H464     H      0.626440000000     0.416730000000     0.829380000000     0.0453295  
H465     H      0.602120000000     0.454610000000     0.891920000000     0.0458861  
H466     H      0.565750000000     0.369230000000     0.938780000000     0.0495101  
H467     H      0.650840000000     0.354090000000     0.792120000000     0.0458951  
H468     H      0.651050000000     0.289460000000     0.858060000000     0.0458958  
H469     H      0.602330000000     0.389980000000     0.957860000000     0.0459334  
H470     H      0.565530000000     0.435240000000     0.871450000000     0.0493874  
H471     H      0.909020000000     0.386480000000     0.544370000000     0.0475192  
H472     H      0.908820000000     0.452420000000     0.611080000000     0.047444   
H473     H      0.876450000000     0.416940000000     0.670440000000     0.0454427  
H474     H      0.876750000000     0.327170000000     0.579580000000     0.0454478  
H475     H      0.810640000000     0.314260000000     0.616950000000     0.0477831  
H476     H      0.844180000000     0.357640000000     0.705650000000     0.0474729  
H477     H      0.942760000000     0.364600000000     0.567040000000     0.0479347  
H478     H      0.942560000000     0.429860000000     0.633070000000     0.047867   
H479     H      0.810440000000     0.379520000000     0.682970000000     0.0478276  
H480     H      0.844380000000     0.291690000000     0.638930000000     0.047408   
H481     H      0.565560000000     0.558860000000     0.128570000000     0.0493654  
H482     H      0.565770000000     0.624860000000     0.061230000000     0.0494772  
H483     H      0.626730000000     0.666740000000     0.079400000000     0.0453548  
H484     H      0.626460000000     0.577370000000     0.170630000000     0.045352   
H485     H      0.650850000000     0.640000000000     0.207880000000     0.0459008  
H486     H      0.687640000000     0.685260000000     0.121460000000     0.0494181  
H487     H      0.602130000000     0.539470000000     0.108080000000     0.0458638  
H488     H      0.602340000000     0.604110000000     0.042140000000     0.0458829  
H489     H      0.651060000000     0.704630000000     0.141940000000     0.0459202  
H490     H      0.687430000000     0.619250000000     0.188800000000     0.0494862  
H491     H      0.687670000000     0.685240000000     0.378580000000     0.0493723  
H492     H      0.687450000000     0.619230000000     0.311240000000     0.0494636  
H493     H      0.626490000000     0.577350000000     0.329400000000     0.0453263  
H494     H      0.626760000000     0.666730000000     0.420640000000     0.0453397  
H495     H      0.602370000000     0.604100000000     0.457890000000     0.0459185  
H496     H      0.565580000000     0.558830000000     0.371460000000     0.0493713  
H497     H      0.651090000000     0.704620000000     0.358090000000     0.0458948  
H498     H      0.650880000000     0.639980000000     0.292150000000     0.0458917  
H499     H      0.602170000000     0.539460000000     0.391950000000     0.0458737  
H500     H      0.565800000000     0.624850000000     0.438810000000     0.0495098  
H501     H      0.602140000000     0.954640000000     0.108070000000     0.0458516  
H502     H      0.602350000000     0.890000000000     0.042130000000     0.0458639  
H503     H      0.626740000000     0.827370000000     0.079380000000     0.0453216  
H504     H      0.626470000000     0.916750000000     0.170620000000     0.0453153  
H505     H      0.687440000000     0.874870000000     0.188790000000     0.0494391  
H506     H      0.651070000000     0.789480000000     0.141930000000     0.0458973  
H507     H      0.565570000000     0.935260000000     0.128560000000     0.0493641  
H508     H      0.565780000000     0.869250000000     0.061220000000     0.0494643  
H509     H      0.687650000000     0.808850000000     0.121450000000     0.04938    
H510     H      0.650860000000     0.854120000000     0.207870000000     0.0458826  
H511     H      0.844170000000     0.636470000000     0.205640000000     0.0474726  
H512     H      0.844370000000     0.702410000000     0.138920000000     0.047416   
H513     H      0.876730000000     0.666940000000     0.079570000000     0.0454302  
H514     H      0.876440000000     0.577160000000     0.170420000000     0.0454229  
H515     H      0.942540000000     0.564250000000     0.133060000000     0.0478742  
H516     H      0.909010000000     0.607630000000     0.044350000000     0.0474495  
H517     H      0.810430000000     0.614590000000     0.182960000000     0.0478307  
H518     H      0.810630000000     0.679850000000     0.116940000000     0.0477858  
H519     H      0.942740000000     0.629510000000     0.067030000000     0.0478924  
H520     H      0.908810000000     0.541690000000     0.111070000000     0.0474375  
H521     H      0.810610000000     0.814270000000     0.383080000000     0.0477912  
H522     H      0.810410000000     0.879530000000     0.317050000000     0.0478289  
H523     H      0.876420000000     0.916960000000     0.329590000000     0.0454357  
H524     H      0.876720000000     0.827190000000     0.420450000000     0.0454494  
H525     H      0.909000000000     0.886500000000     0.455660000000     0.0475011  
H526     H      0.942530000000     0.929870000000     0.366960000000     0.0478696  
H527     H      0.844350000000     0.791710000000     0.361100000000     0.0474503  
H528     H      0.844150000000     0.857660000000     0.294380000000     0.0474853  
H529     H      0.908800000000     0.952440000000     0.388950000000     0.0474261  
H530     H      0.942730000000     0.864610000000     0.432980000000     0.0479255  
H531     H      0.942610000000     0.564280000000     0.366930000000     0.0478731  
H532     H      0.942810000000     0.629540000000     0.432950000000     0.0478925  
H533     H      0.876800000000     0.666970000000     0.420410000000     0.0454451  
H534     H      0.876500000000     0.577190000000     0.329550000000     0.0454221  
H535     H      0.844210000000     0.636500000000     0.294340000000     0.0474798  
H536     H      0.810690000000     0.679880000000     0.383050000000     0.0477821  
H537     H      0.908860000000     0.541720000000     0.388900000000     0.0474371  
H538     H      0.909070000000     0.607670000000     0.455620000000     0.0474875  
H539     H      0.844420000000     0.702450000000     0.361050000000     0.0474204  
H540     H      0.810490000000     0.614610000000     0.317020000000     0.0478254  
H541     H      0.687400000000     0.874850000000     0.311210000000     0.0494621  
H542     H      0.687620000000     0.808840000000     0.378550000000     0.0494083  
H543     H      0.626710000000     0.827350000000     0.420610000000     0.0453649  
H544     H      0.626440000000     0.916720000000     0.329380000000     0.045337   
H545     H      0.602120000000     0.954610000000     0.391920000000     0.0458453  
H546     H      0.565750000000     0.869230000000     0.438780000000     0.0494873  
H547     H      0.650840000000     0.854090000000     0.292120000000     0.0458923  
H548     H      0.651050000000     0.789460000000     0.358060000000     0.0459223  
H549     H      0.602330000000     0.889970000000     0.457860000000     0.0458946  
H550     H      0.565530000000     0.935250000000     0.371440000000     0.0493437  
H551     H      0.909020000000     0.886480000000     0.044370000000     0.0474642  
H552     H      0.908820000000     0.952420000000     0.111080000000     0.0474162  
H553     H      0.876450000000     0.916950000000     0.170440000000     0.0454051  
H554     H      0.876750000000     0.827170000000     0.079580000000     0.0454331  
H555     H      0.810640000000     0.814260000000     0.116950000000     0.0477869  
H556     H      0.844180000000     0.857640000000     0.205650000000     0.0474672  
H557     H      0.942760000000     0.864600000000     0.067040000000     0.0478908  
H558     H      0.942560000000     0.929860000000     0.133070000000     0.0478551  
H559     H      0.810440000000     0.879520000000     0.182970000000     0.0478099  
H560     H      0.844380000000     0.791690000000     0.138930000000     0.0474266  
H561     H      0.565560000000     0.558860000000     0.628570000000     0.0493645  
H562     H      0.565770000000     0.624860000000     0.561230000000     0.049491   
H563     H      0.626730000000     0.666740000000     0.579400000000     0.0453685  
H564     H      0.626460000000     0.577370000000     0.670630000000     0.0453517  
H565     H      0.650850000000     0.640000000000     0.707880000000     0.0459     
H566     H      0.687640000000     0.685260000000     0.621460000000     0.0494259  
H567     H      0.602130000000     0.539470000000     0.608080000000     0.0458687  
H568     H      0.602340000000     0.604110000000     0.542140000000     0.0459086  
H569     H      0.651060000000     0.704630000000     0.641940000000     0.0459235  
H570     H      0.687430000000     0.619250000000     0.688800000000     0.0494873  
H571     H      0.687670000000     0.685240000000     0.878580000000     0.0493813  
H572     H      0.687450000000     0.619230000000     0.811240000000     0.0494646  
H573     H      0.626490000000     0.577350000000     0.829400000000     0.0453252  
H574     H      0.626760000000     0.666730000000     0.920640000000     0.0453571  
H575     H      0.602370000000     0.604100000000     0.957890000000     0.0459502  
H576     H      0.565580000000     0.558830000000     0.871470000000     0.0493822  
H577     H      0.651090000000     0.704620000000     0.858090000000     0.0458992  
H578     H      0.650880000000     0.639980000000     0.792150000000     0.0458907  
H579     H      0.602170000000     0.539460000000     0.891950000000     0.0458744  
H580     H      0.565800000000     0.624850000000     0.938810000000     0.0495336  
H581     H      0.602140000000     0.954640000000     0.608070000000     0.0458566  
H582     H      0.602350000000     0.890000000000     0.542130000000     0.0458891  
H583     H      0.626740000000     0.827370000000     0.579380000000     0.0453352  
H584     H      0.626470000000     0.916750000000     0.670620000000     0.0453151  
H585     H      0.687440000000     0.874870000000     0.688790000000     0.0494411  
H586     H      0.651070000000     0.789480000000     0.641930000000     0.0459006  
H587     H      0.565570000000     0.935260000000     0.628560000000     0.0493631  
H588     H      0.565780000000     0.869250000000     0.561220000000     0.0494775  
H589     H      0.687650000000     0.808850000000     0.621450000000     0.0493885  
H590     H      0.650860000000     0.854120000000     0.707870000000     0.0458818  
H591     H      0.844170000000     0.636470000000     0.705640000000     0.0474711  
H592     H      0.844370000000     0.702410000000     0.638920000000     0.0474201  
H593     H      0.876730000000     0.666940000000     0.579570000000     0.0454228  
H594     H      0.876440000000     0.577160000000     0.670420000000     0.0454169  
H595     H      0.942540000000     0.564250000000     0.633060000000     0.0478399  
H596     H      0.909010000000     0.607630000000     0.544350000000     0.0474712  
H597     H      0.810430000000     0.614590000000     0.682960000000     0.0478314  
H598     H      0.810630000000     0.679850000000     0.616940000000     0.0477948  
H599     H      0.942740000000     0.629510000000     0.567030000000     0.0479038  
H600     H      0.908810000000     0.541690000000     0.611070000000     0.0474123  
H601     H      0.810610000000     0.814270000000     0.883080000000     0.0478008  
H602     H      0.810410000000     0.879530000000     0.817050000000     0.0478309  
H603     H      0.876420000000     0.916960000000     0.829590000000     0.0454353  
H604     H      0.876720000000     0.827190000000     0.920450000000     0.0454641  
H605     H      0.909000000000     0.886500000000     0.955660000000     0.0475257  
H606     H      0.942530000000     0.929870000000     0.866960000000     0.0478637  
H607     H      0.844350000000     0.791710000000     0.861100000000     0.0474544  
H608     H      0.844150000000     0.857660000000     0.794380000000     0.0474844  
H609     H      0.908800000000     0.952440000000     0.888950000000     0.0474286  
H610     H      0.942730000000     0.864610000000     0.932980000000     0.0479375  
H611     H      0.942610000000     0.564280000000     0.866930000000     0.0478719  
H612     H      0.942810000000     0.629540000000     0.932950000000     0.0479062  
H613     H      0.876800000000     0.666970000000     0.920410000000     0.0454593  
H614     H      0.876500000000     0.577190000000     0.829550000000     0.045422   
H615     H      0.844210000000     0.636500000000     0.794340000000     0.0474793  
H616     H      0.810690000000     0.679880000000     0.883050000000     0.0477893  
H617     H      0.908860000000     0.541720000000     0.888900000000     0.0474426  
H618     H      0.909070000000     0.607670000000     0.955620000000     0.0475139  
H619     H      0.844420000000     0.702450000000     0.861060000000     0.047418   
H620     H      0.810490000000     0.614610000000     0.817020000000     0.0478271  
H621     H      0.687400000000     0.874850000000     0.811210000000     0.0494647  
H622     H      0.687620000000     0.808840000000     0.878550000000     0.0493826  
H623     H      0.626710000000     0.827350000000     0.920610000000     0.045373   
H624     H      0.626440000000     0.916720000000     0.829380000000     0.0453415  
H625     H      0.602120000000     0.954610000000     0.891920000000     0.0458625  
H626     H      0.565750000000     0.869230000000     0.938780000000     0.0495088  
H627     H      0.650840000000     0.854090000000     0.792120000000     0.0458929  
H628     H      0.651050000000     0.789460000000     0.858060000000     0.045896   
H629     H      0.602330000000     0.889970000000     0.957860000000     0.0459229  
H630     H      0.565530000000     0.935250000000     0.871450000000     0.0493742  
H631     H      0.909020000000     0.886480000000     0.544370000000     0.047487   
H632     H      0.908820000000     0.952420000000     0.611080000000     0.0474203  
H633     H      0.876450000000     0.916950000000     0.670440000000     0.0454055  
H634     H      0.876750000000     0.827170000000     0.579580000000     0.0454464  
H635     H      0.810640000000     0.814260000000     0.616950000000     0.0477993  
H636     H      0.844180000000     0.857640000000     0.705650000000     0.0474676  
H637     H      0.942760000000     0.864600000000     0.567040000000     0.0479027  
H638     H      0.942560000000     0.929860000000     0.633070000000     0.0478542  
H639     H      0.810440000000     0.879520000000     0.682970000000     0.0478164  
H640     H      0.844380000000     0.791690000000     0.638930000000     0.0474302  
N1       N      0.179690000000     0.170810000000     0.173510000000    -0.162455   
N2       N      0.073510000000     0.073300000000     0.076520000000    -0.16247    
N3       N      0.073530000000     0.073280000000     0.423520000000    -0.162537   
N4       N      0.179710000000     0.170800000000     0.326520000000    -0.162497   
N5       N      0.179690000000     0.323300000000     0.173500000000    -0.162452   
N6       N      0.073510000000     0.420820000000     0.076510000000    -0.162541   
N7       N      0.436390000000     0.077400000000     0.080540000000    -0.163512   
N8       N      0.316790000000     0.166700000000     0.169450000000    -0.163462   
N9       N      0.436380000000     0.416720000000     0.419470000000    -0.163461   
N10      N      0.316770000000     0.327420000000     0.330560000000    -0.163582   
N11      N      0.316830000000     0.166730000000     0.330530000000    -0.163535   
N12      N      0.436440000000     0.077430000000     0.419440000000    -0.163512   
N13      N      0.073490000000     0.420800000000     0.423490000000    -0.162537   
N14      N      0.179670000000     0.323280000000     0.326500000000    -0.162482   
N15      N      0.316800000000     0.327410000000     0.169460000000    -0.16352    
N16      N      0.436400000000     0.416710000000     0.080550000000    -0.163478   
N17      N      0.179690000000     0.170810000000     0.673510000000    -0.162454   
N18      N      0.073510000000     0.073300000000     0.576520000000    -0.162465   
N19      N      0.073530000000     0.073280000000     0.923510000000    -0.162492   
N20      N      0.179710000000     0.170800000000     0.826520000000    -0.162496   
N21      N      0.179690000000     0.323300000000     0.673500000000    -0.162451   
N22      N      0.073510000000     0.420820000000     0.576510000000    -0.162537   
N23      N      0.436390000000     0.077400000000     0.580540000000    -0.163524   
N24      N      0.316790000000     0.166700000000     0.669450000000    -0.163461   
N25      N      0.436380000000     0.416720000000     0.919470000000    -0.16348    
N26      N      0.316770000000     0.327420000000     0.830560000000    -0.163581   
N27      N      0.316830000000     0.166730000000     0.830530000000    -0.163533   
N28      N      0.436440000000     0.077430000000     0.919440000000    -0.163506   
N29      N      0.073490000000     0.420800000000     0.923490000000    -0.16247    
N30      N      0.179670000000     0.323280000000     0.826500000000    -0.162496   
N31      N      0.316800000000     0.327410000000     0.669460000000    -0.163487   
N32      N      0.436400000000     0.416710000000     0.580550000000    -0.163474   
N33      N      0.179690000000     0.670810000000     0.173510000000    -0.162445   
N34      N      0.073510000000     0.573300000000     0.076520000000    -0.162445   
N35      N      0.073530000000     0.573280000000     0.423520000000    -0.16253    
N36      N      0.179710000000     0.670800000000     0.326520000000    -0.162497   
N37      N      0.179690000000     0.823300000000     0.173500000000    -0.162458   
N38      N      0.073510000000     0.920820000000     0.076510000000    -0.162545   
N39      N      0.436390000000     0.577400000000     0.080540000000    -0.163512   
N40      N      0.316790000000     0.666700000000     0.169450000000    -0.163496   
N41      N      0.436380000000     0.916720000000     0.419470000000    -0.163464   
N42      N      0.316770000000     0.827420000000     0.330560000000    -0.163573   
N43      N      0.316830000000     0.666730000000     0.330530000000    -0.163536   
N44      N      0.436440000000     0.577430000000     0.419440000000    -0.163518   
N45      N      0.073490000000     0.920800000000     0.423490000000    -0.162539   
N46      N      0.179670000000     0.823280000000     0.326500000000    -0.162487   
N47      N      0.316800000000     0.827410000000     0.169460000000    -0.163517   
N48      N      0.436400000000     0.916710000000     0.080550000000    -0.163495   
N49      N      0.179690000000     0.670810000000     0.673510000000    -0.162445   
N50      N      0.073510000000     0.573300000000     0.576520000000    -0.162441   
N51      N      0.073530000000     0.573280000000     0.923510000000    -0.162484   
N52      N      0.179710000000     0.670800000000     0.826520000000    -0.162496   
N53      N      0.179690000000     0.823300000000     0.673500000000    -0.162457   
N54      N      0.073510000000     0.920820000000     0.576510000000    -0.162541   
N55      N      0.436390000000     0.577400000000     0.580540000000    -0.163524   
N56      N      0.316790000000     0.666700000000     0.669450000000    -0.163495   
N57      N      0.436380000000     0.916720000000     0.919470000000    -0.163482   
N58      N      0.316770000000     0.827420000000     0.830560000000    -0.163572   
N59      N      0.316830000000     0.666730000000     0.830530000000    -0.163534   
N60      N      0.436440000000     0.577430000000     0.919440000000    -0.163511   
N61      N      0.073490000000     0.920800000000     0.923490000000    -0.162472   
N62      N      0.179670000000     0.823280000000     0.826500000000    -0.1625     
N63      N      0.316800000000     0.827410000000     0.669460000000    -0.163484   
N64      N      0.436400000000     0.916710000000     0.580550000000    -0.163492   
N65      N      0.679690000000     0.170810000000     0.173510000000    -0.162451   
N66      N      0.573510000000     0.073300000000     0.076520000000    -0.162459   
N67      N      0.573530000000     0.073280000000     0.423520000000    -0.162494   
N68      N      0.679710000000     0.170800000000     0.326520000000    -0.162494   
N69      N      0.679690000000     0.323300000000     0.173500000000    -0.162454   
N70      N      0.573510000000     0.420820000000     0.076510000000    -0.162531   
N71      N      0.936390000000     0.077400000000     0.080540000000    -0.163475   
N72      N      0.816780000000     0.166700000000     0.169450000000    -0.163499   
N73      N      0.936380000000     0.416720000000     0.419470000000    -0.163427   
N74      N      0.816770000000     0.327420000000     0.330560000000    -0.163574   
N75      N      0.816830000000     0.166730000000     0.330530000000    -0.163533   
N76      N      0.936440000000     0.077430000000     0.419440000000    -0.163474   
N77      N      0.573490000000     0.420800000000     0.423490000000    -0.162534   
N78      N      0.679670000000     0.323280000000     0.326500000000    -0.162479   
N79      N      0.816790000000     0.327410000000     0.169460000000    -0.163565   
N80      N      0.936400000000     0.416710000000     0.080550000000    -0.163441   
N81      N      0.679690000000     0.170810000000     0.673510000000    -0.162451   
N82      N      0.573510000000     0.073300000000     0.576520000000    -0.162455   
N83      N      0.573530000000     0.073280000000     0.923510000000    -0.162449   
N84      N      0.679710000000     0.170800000000     0.826520000000    -0.162493   
N85      N      0.679690000000     0.323300000000     0.673500000000    -0.162453   
N86      N      0.573510000000     0.420820000000     0.576510000000    -0.162526   
N87      N      0.936390000000     0.077400000000     0.580540000000    -0.163487   
N88      N      0.816780000000     0.166700000000     0.669450000000    -0.163499   
N89      N      0.936380000000     0.416720000000     0.919470000000    -0.163445   
N90      N      0.816770000000     0.327420000000     0.830560000000    -0.163573   
N91      N      0.816830000000     0.166730000000     0.830530000000    -0.163531   
N92      N      0.936440000000     0.077430000000     0.919440000000    -0.163468   
N93      N      0.573490000000     0.420800000000     0.923490000000    -0.162467   
N94      N      0.679670000000     0.323280000000     0.826500000000    -0.162492   
N95      N      0.816790000000     0.327410000000     0.669460000000    -0.163532   
N96      N      0.936400000000     0.416710000000     0.580550000000    -0.163437   
N97      N      0.679690000000     0.670810000000     0.173510000000    -0.162442   
N98      N      0.573510000000     0.573300000000     0.076520000000    -0.162434   
N99      N      0.573530000000     0.573280000000     0.423520000000    -0.162487   
N100     N      0.679710000000     0.670800000000     0.326520000000    -0.162494   
N101     N      0.679690000000     0.823300000000     0.173500000000    -0.162459   
N102     N      0.573510000000     0.920820000000     0.076510000000    -0.162534   
N103     N      0.936390000000     0.577400000000     0.080540000000    -0.163476   
N104     N      0.816780000000     0.666700000000     0.169450000000    -0.163533   
N105     N      0.936380000000     0.916720000000     0.419470000000    -0.16343    
N106     N      0.816770000000     0.827420000000     0.330560000000    -0.163565   
N107     N      0.816830000000     0.666730000000     0.330530000000    -0.163535   
N108     N      0.936440000000     0.577430000000     0.419440000000    -0.16348    
N109     N      0.573490000000     0.920800000000     0.423490000000    -0.162536   
N110     N      0.679670000000     0.823280000000     0.326500000000    -0.162483   
N111     N      0.816790000000     0.827410000000     0.169460000000    -0.163563   
N112     N      0.936400000000     0.916710000000     0.080550000000    -0.163458   
N113     N      0.679690000000     0.670810000000     0.673510000000    -0.162441   
N114     N      0.573510000000     0.573300000000     0.576520000000    -0.16243    
N115     N      0.573530000000     0.573280000000     0.923510000000    -0.162441   
N116     N      0.679710000000     0.670800000000     0.826520000000    -0.162494   
N117     N      0.679690000000     0.823300000000     0.673500000000    -0.162458   
N118     N      0.573510000000     0.920820000000     0.576510000000    -0.16253    
N119     N      0.936390000000     0.577400000000     0.580540000000    -0.163487   
N120     N      0.816780000000     0.666700000000     0.669450000000    -0.163533   
N121     N      0.936380000000     0.916720000000     0.919470000000    -0.163448   
N122     N      0.816770000000     0.827420000000     0.830560000000    -0.163564   
N123     N      0.816830000000     0.666730000000     0.830530000000    -0.163533   
N124     N      0.936440000000     0.577430000000     0.919440000000    -0.163473   
N125     N      0.573490000000     0.920800000000     0.923490000000    -0.162469   
N126     N      0.679670000000     0.823280000000     0.826500000000    -0.162497   
N127     N      0.816790000000     0.827410000000     0.669460000000    -0.16353    
N128     N      0.936400000000     0.916710000000     0.580550000000    -0.163455   
O1       O      0.469230000000     0.423950000000     0.033170000000    -0.363752   
O2       O      0.469250000000     0.070170000000     0.466830000000    -0.36378    
O3       O      0.469180000000     0.030190000000     0.073520000000    -0.363302   
O4       O      0.469170000000     0.463930000000     0.426490000000    -0.363211   
O5       O      0.469230000000     0.070160000000     0.033170000000    -0.363843   
O6       O      0.469220000000     0.423960000000     0.466850000000    -0.363664   
O7       O      0.469200000000     0.030210000000     0.426480000000    -0.363422   
O8       O      0.469180000000     0.463920000000     0.073530000000    -0.363283   
O9       O      0.038430000000     0.426630000000     0.469490000000    -0.366854   
O10      O      0.038440000000     0.067470000000     0.030530000000    -0.366988   
O11      O      0.038280000000     0.466510000000     0.070970000000    -0.366453   
O12      O      0.038300000000     0.027590000000     0.429050000000    -0.366412   
O13      O      0.038450000000     0.067470000000     0.469500000000    -0.366823   
O14      O      0.038440000000     0.426640000000     0.030520000000    -0.367006   
O15      O      0.038270000000     0.466500000000     0.429040000000    -0.36652    
O16      O      0.038280000000     0.027600000000     0.070980000000    -0.366422   
O17      O      0.487710000000     0.497060000000     0.000010000000    -0.591175   
O18      O      0.284020000000     0.280200000000     0.176490000000    -0.363511   
O19      O      0.284040000000     0.213930000000     0.323520000000    -0.363335   
O20      O      0.283960000000     0.320170000000     0.283180000000    -0.363758   
O21      O      0.283970000000     0.173950000000     0.216840000000    -0.363714   
O22      O      0.284010000000     0.280200000000     0.323530000000    -0.363403   
O23      O      0.284010000000     0.213920000000     0.176480000000    -0.363279   
O24      O      0.283990000000     0.173960000000     0.283160000000    -0.363715   
O25      O      0.283970000000     0.320160000000     0.216840000000    -0.363758   
O26      O      0.214920000000     0.216510000000     0.179040000000    -0.366373   
O27      O      0.214910000000     0.277590000000     0.320970000000    -0.366467   
O28      O      0.214770000000     0.317470000000     0.219490000000    -0.367002   
O29      O      0.214780000000     0.176630000000     0.280530000000    -0.366979   
O30      O      0.214930000000     0.216500000000     0.320980000000    -0.366467   
O31      O      0.214920000000     0.277600000000     0.179040000000    -0.366528   
O32      O      0.214760000000     0.176640000000     0.219500000000    -0.366912   
O33      O      0.214750000000     0.317470000000     0.280520000000    -0.366879   
O34      O      0.265500000000     0.247060000000     0.250010000000    -0.5911     
O35      O      0.469230000000     0.423950000000     0.533170000000    -0.363745   
O36      O      0.469250000000     0.070170000000     0.966830000000    -0.363708   
O37      O      0.469180000000     0.030190000000     0.573520000000    -0.363304   
O38      O      0.469170000000     0.463930000000     0.926500000000    -0.363306   
O39      O      0.469230000000     0.070160000000     0.533170000000    -0.363837   
O40      O      0.469220000000     0.423960000000     0.966850000000    -0.363612   
O41      O      0.469200000000     0.030210000000     0.926480000000    -0.363412   
O42      O      0.469180000000     0.463920000000     0.573530000000    -0.363283   
O43      O      0.038430000000     0.426630000000     0.969490000000    -0.366855   
O44      O      0.038440000000     0.067470000000     0.530530000000    -0.366974   
O45      O      0.038280000000     0.466510000000     0.570970000000    -0.366451   
O46      O      0.038300000000     0.027590000000     0.929050000000    -0.366403   
O47      O      0.038450000000     0.067470000000     0.969500000000    -0.36674    
O48      O      0.038440000000     0.426640000000     0.530520000000    -0.366993   
O49      O      0.038270000000     0.466500000000     0.929030000000    -0.36639    
O50      O      0.038280000000     0.027600000000     0.570980000000    -0.36642    
O51      O      0.487710000000     0.497060000000     0.500010000000    -0.59115    
O52      O      0.284020000000     0.280200000000     0.676490000000    -0.363487   
O53      O      0.284040000000     0.213930000000     0.823520000000    -0.363332   
O54      O      0.283960000000     0.320170000000     0.783180000000    -0.363757   
O55      O      0.283970000000     0.173950000000     0.716840000000    -0.363714   
O56      O      0.284010000000     0.280200000000     0.823530000000    -0.363401   
O57      O      0.284010000000     0.213920000000     0.676480000000    -0.363277   
O58      O      0.283990000000     0.173960000000     0.783160000000    -0.363715   
O59      O      0.283970000000     0.320160000000     0.716840000000    -0.36386    
O60      O      0.214920000000     0.216510000000     0.679040000000    -0.36637    
O61      O      0.214910000000     0.277590000000     0.820970000000    -0.366467   
O62      O      0.214770000000     0.317470000000     0.719490000000    -0.367      
O63      O      0.214780000000     0.176630000000     0.780530000000    -0.366979   
O64      O      0.214930000000     0.216500000000     0.820980000000    -0.366465   
O65      O      0.214920000000     0.277600000000     0.679040000000    -0.366525   
O66      O      0.214760000000     0.176640000000     0.719500000000    -0.366912   
O67      O      0.214750000000     0.317470000000     0.780520000000    -0.36688    
O68      O      0.265500000000     0.247060000000     0.750010000000    -0.591104   
O69      O      0.469230000000     0.923950000000     0.033170000000    -0.363755   
O70      O      0.469250000000     0.570170000000     0.466830000000    -0.363773   
O71      O      0.469180000000     0.530190000000     0.073520000000    -0.363365   
O72      O      0.469170000000     0.963930000000     0.426490000000    -0.363219   
O73      O      0.469230000000     0.570160000000     0.033170000000    -0.363838   
O74      O      0.469220000000     0.923960000000     0.466850000000    -0.363664   
O75      O      0.469200000000     0.530210000000     0.426480000000    -0.363486   
O76      O      0.469180000000     0.963920000000     0.073530000000    -0.363294   
O77      O      0.038430000000     0.926630000000     0.469490000000    -0.366855   
O78      O      0.038440000000     0.567480000000     0.030530000000    -0.366881   
O79      O      0.038280000000     0.966510000000     0.070970000000    -0.366464   
O80      O      0.038300000000     0.527590000000     0.429050000000    -0.366478   
O81      O      0.038450000000     0.567470000000     0.469500000000    -0.366823   
O82      O      0.038440000000     0.926640000000     0.030520000000    -0.367008   
O83      O      0.038270000000     0.966500000000     0.429040000000    -0.366532   
O84      O      0.038280000000     0.527600000000     0.070980000000    -0.366464   
O85      O      0.487710000000     0.997060000000     0.000010000000    -0.591208   
O86      O      0.284020000000     0.780200000000     0.176490000000    -0.363525   
O87      O      0.284040000000     0.713930000000     0.323520000000    -0.363339   
O88      O      0.283960000000     0.820170000000     0.283180000000    -0.36382    
O89      O      0.283970000000     0.673950000000     0.216840000000    -0.363766   
O90      O      0.284010000000     0.780200000000     0.323530000000    -0.363413   
O91      O      0.284010000000     0.713910000000     0.176480000000    -0.363373   
O92      O      0.283990000000     0.673960000000     0.283160000000    -0.363716   
O93      O      0.283970000000     0.820160000000     0.216840000000    -0.363821   
O94      O      0.214920000000     0.716510000000     0.179040000000    -0.366367   
O95      O      0.214910000000     0.777590000000     0.320970000000    -0.366475   
O96      O      0.214770000000     0.817470000000     0.219490000000    -0.367057   
O97      O      0.214780000000     0.676630000000     0.280530000000    -0.366981   
O98      O      0.214930000000     0.716500000000     0.320980000000    -0.366469   
O99      O      0.214920000000     0.777600000000     0.179040000000    -0.366534   
O100     O      0.214760000000     0.676640000000     0.219500000000    -0.36691    
O101     O      0.214750000000     0.817470000000     0.280520000000    -0.366935   
O102     O      0.265500000000     0.747060000000     0.250010000000    -0.591055   
O103     O      0.469230000000     0.923950000000     0.533170000000    -0.363748   
O104     O      0.469250000000     0.570170000000     0.966830000000    -0.363701   
O105     O      0.469180000000     0.530190000000     0.573520000000    -0.363367   
O106     O      0.469170000000     0.963930000000     0.926500000000    -0.363313   
O107     O      0.469230000000     0.570160000000     0.533170000000    -0.363831   
O108     O      0.469220000000     0.923960000000     0.966850000000    -0.363613   
O109     O      0.469200000000     0.530210000000     0.926480000000    -0.363476   
O110     O      0.469180000000     0.963920000000     0.573530000000    -0.363294   
O111     O      0.038430000000     0.926630000000     0.969490000000    -0.366856   
O112     O      0.038440000000     0.567480000000     0.530530000000    -0.366867   
O113     O      0.038280000000     0.966510000000     0.570970000000    -0.366461   
O114     O      0.038300000000     0.527590000000     0.929050000000    -0.366469   
O115     O      0.038450000000     0.567470000000     0.969500000000    -0.36674    
O116     O      0.038440000000     0.926640000000     0.530520000000    -0.366995   
O117     O      0.038270000000     0.966500000000     0.929030000000    -0.366401   
O118     O      0.038280000000     0.527600000000     0.570980000000    -0.366461   
O119     O      0.487710000000     0.997060000000     0.500010000000    -0.591182   
O120     O      0.284020000000     0.780200000000     0.676490000000    -0.363502   
O121     O      0.284040000000     0.713930000000     0.823520000000    -0.363336   
O122     O      0.283960000000     0.820170000000     0.783180000000    -0.363818   
O123     O      0.283970000000     0.673950000000     0.716840000000    -0.363766   
O124     O      0.284010000000     0.780200000000     0.823530000000    -0.363411   
O125     O      0.284010000000     0.713910000000     0.676480000000    -0.363371   
O126     O      0.283990000000     0.673960000000     0.783160000000    -0.363717   
O127     O      0.283970000000     0.820160000000     0.716840000000    -0.363923   
O128     O      0.214920000000     0.716510000000     0.679040000000    -0.366364   
O129     O      0.214910000000     0.777590000000     0.820970000000    -0.366475   
O130     O      0.214770000000     0.817470000000     0.719490000000    -0.367056   
O131     O      0.214780000000     0.676630000000     0.780530000000    -0.366981   
O132     O      0.214930000000     0.716500000000     0.820980000000    -0.366467   
O133     O      0.214920000000     0.777600000000     0.679040000000    -0.366531   
O134     O      0.214760000000     0.676640000000     0.719500000000    -0.36691    
O135     O      0.214750000000     0.817470000000     0.780520000000    -0.366937   
O136     O      0.265500000000     0.747060000000     0.750010000000    -0.591059   
O137     O      0.969230000000     0.423950000000     0.033170000000    -0.363483   
O138     O      0.969250000000     0.070170000000     0.466830000000    -0.363508   
O139     O      0.969180000000     0.030190000000     0.073520000000    -0.363033   
O140     O      0.969170000000     0.463930000000     0.426490000000    -0.362942   
O141     O      0.969230000000     0.070160000000     0.033170000000    -0.363574   
O142     O      0.969220000000     0.423960000000     0.466850000000    -0.363395   
O143     O      0.969200000000     0.030210000000     0.426480000000    -0.36315    
O144     O      0.969180000000     0.463920000000     0.073530000000    -0.363015   
O145     O      0.538430000000     0.426630000000     0.469490000000    -0.366875   
O146     O      0.538440000000     0.067470000000     0.030530000000    -0.367005   
O147     O      0.538280000000     0.466510000000     0.070970000000    -0.366471   
O148     O      0.538300000000     0.027590000000     0.429050000000    -0.366487   
O149     O      0.538450000000     0.067470000000     0.469500000000    -0.366898   
O150     O      0.538440000000     0.426640000000     0.030520000000    -0.367027   
O151     O      0.538270000000     0.466500000000     0.429040000000    -0.366536   
O152     O      0.538280000000     0.027600000000     0.070980000000    -0.366441   
O153     O      0.987710000000     0.497060000000     0.000010000000    -0.590548   
O154     O      0.784020000000     0.280200000000     0.176490000000    -0.363531   
O155     O      0.784040000000     0.213930000000     0.323520000000    -0.363337   
O156     O      0.783960000000     0.320170000000     0.283180000000    -0.363751   
O157     O      0.783960000000     0.173950000000     0.216840000000    -0.363735   
O158     O      0.784010000000     0.280200000000     0.323530000000    -0.363402   
O159     O      0.784010000000     0.213920000000     0.176480000000    -0.363279   
O160     O      0.783990000000     0.173960000000     0.283160000000    -0.363722   
O161     O      0.783970000000     0.320160000000     0.216840000000    -0.363779   
O162     O      0.714920000000     0.216510000000     0.179040000000    -0.366369   
O163     O      0.714910000000     0.277590000000     0.320970000000    -0.366465   
O164     O      0.714760000000     0.317470000000     0.219490000000    -0.366994   
O165     O      0.714780000000     0.176630000000     0.280530000000    -0.366984   
O166     O      0.714930000000     0.216500000000     0.320980000000    -0.366468   
O167     O      0.714920000000     0.277600000000     0.179040000000    -0.366546   
O168     O      0.714760000000     0.176640000000     0.219500000000    -0.366906   
O169     O      0.714750000000     0.317470000000     0.280520000000    -0.36687    
O170     O      0.765500000000     0.247060000000     0.250010000000    -0.591099   
O171     O      0.969230000000     0.423950000000     0.533170000000    -0.363476   
O172     O      0.969250000000     0.070170000000     0.966830000000    -0.363436   
O173     O      0.969180000000     0.030190000000     0.573520000000    -0.363035   
O174     O      0.969170000000     0.463930000000     0.926500000000    -0.363037   
O175     O      0.969230000000     0.070160000000     0.533170000000    -0.363568   
O176     O      0.969220000000     0.423960000000     0.966850000000    -0.363343   
O177     O      0.969200000000     0.030210000000     0.926480000000    -0.363141   
O178     O      0.969180000000     0.463920000000     0.573530000000    -0.363014   
O179     O      0.538430000000     0.426630000000     0.969490000000    -0.366876   
O180     O      0.538440000000     0.067470000000     0.530530000000    -0.366991   
O181     O      0.538280000000     0.466510000000     0.570970000000    -0.366469   
O182     O      0.538300000000     0.027590000000     0.929050000000    -0.366478   
O183     O      0.538450000000     0.067470000000     0.969500000000    -0.366815   
O184     O      0.538440000000     0.426640000000     0.530520000000    -0.367014   
O185     O      0.538270000000     0.466500000000     0.929030000000    -0.366406   
O186     O      0.538280000000     0.027600000000     0.570980000000    -0.366439   
O187     O      0.987710000000     0.497060000000     0.500010000000    -0.590522   
O188     O      0.784020000000     0.280200000000     0.676490000000    -0.363507   
O189     O      0.784040000000     0.213930000000     0.823520000000    -0.363334   
O190     O      0.783960000000     0.320170000000     0.783180000000    -0.36375    
O191     O      0.783960000000     0.173950000000     0.716840000000    -0.363735   
O192     O      0.784010000000     0.280200000000     0.823530000000    -0.3634     
O193     O      0.784010000000     0.213920000000     0.676480000000    -0.363277   
O194     O      0.783990000000     0.173960000000     0.783160000000    -0.363722   
O195     O      0.783970000000     0.320160000000     0.716840000000    -0.363881   
O196     O      0.714920000000     0.216510000000     0.679040000000    -0.366366   
O197     O      0.714910000000     0.277590000000     0.820970000000    -0.366465   
O198     O      0.714760000000     0.317470000000     0.719490000000    -0.366993   
O199     O      0.714780000000     0.176630000000     0.780530000000    -0.366984   
O200     O      0.714930000000     0.216500000000     0.820980000000    -0.366466   
O201     O      0.714920000000     0.277600000000     0.679040000000    -0.366543   
O202     O      0.714760000000     0.176640000000     0.719500000000    -0.366906   
O203     O      0.714750000000     0.317470000000     0.780520000000    -0.366872   
O204     O      0.765500000000     0.247060000000     0.750010000000    -0.591103   
O205     O      0.969230000000     0.923950000000     0.033170000000    -0.363486   
O206     O      0.969250000000     0.570170000000     0.466830000000    -0.363501   
O207     O      0.969180000000     0.530190000000     0.073520000000    -0.363096   
O208     O      0.969170000000     0.963930000000     0.426490000000    -0.36295    
O209     O      0.969230000000     0.570160000000     0.033170000000    -0.363569   
O210     O      0.969220000000     0.923960000000     0.466850000000    -0.363395   
O211     O      0.969200000000     0.530210000000     0.426480000000    -0.363214   
O212     O      0.969180000000     0.963920000000     0.073530000000    -0.363025   
O213     O      0.538430000000     0.926630000000     0.469490000000    -0.366876   
O214     O      0.538440000000     0.567480000000     0.030530000000    -0.366898   
O215     O      0.538280000000     0.966510000000     0.070970000000    -0.366482   
O216     O      0.538300000000     0.527590000000     0.429050000000    -0.366552   
O217     O      0.538450000000     0.567470000000     0.469500000000    -0.366897   
O218     O      0.538440000000     0.926640000000     0.030520000000    -0.367028   
O219     O      0.538270000000     0.966500000000     0.429040000000    -0.366548   
O220     O      0.538280000000     0.527600000000     0.070980000000    -0.366482   
O221     O      0.987710000000     0.997060000000     0.000010000000    -0.59058    
O222     O      0.784020000000     0.780200000000     0.176490000000    -0.363545   
O223     O      0.784040000000     0.713930000000     0.323520000000    -0.36334    
O224     O      0.783960000000     0.820170000000     0.283180000000    -0.363812   
O225     O      0.783960000000     0.673950000000     0.216840000000    -0.363787   
O226     O      0.784010000000     0.780200000000     0.323530000000    -0.363412   
O227     O      0.784010000000     0.713910000000     0.176480000000    -0.363372   
O228     O      0.783990000000     0.673960000000     0.283160000000    -0.363723   
O229     O      0.783970000000     0.820160000000     0.216840000000    -0.363842   
O230     O      0.714920000000     0.716510000000     0.179040000000    -0.366364   
O231     O      0.714910000000     0.777590000000     0.320970000000    -0.366473   
O232     O      0.714760000000     0.817470000000     0.219490000000    -0.367049   
O233     O      0.714780000000     0.676630000000     0.280530000000    -0.366985   
O234     O      0.714930000000     0.716500000000     0.320980000000    -0.36647    
O235     O      0.714920000000     0.777600000000     0.179040000000    -0.366552   
O236     O      0.714760000000     0.676640000000     0.219500000000    -0.366904   
O237     O      0.714750000000     0.817470000000     0.280520000000    -0.366927   
O238     O      0.765500000000     0.747060000000     0.250010000000    -0.591054   
O239     O      0.969230000000     0.923950000000     0.533170000000    -0.363479   
O240     O      0.969250000000     0.570170000000     0.966830000000    -0.363429   
O241     O      0.969180000000     0.530190000000     0.573520000000    -0.363098   
O242     O      0.969170000000     0.963930000000     0.926500000000    -0.363044   
O243     O      0.969230000000     0.570160000000     0.533170000000    -0.363562   
O244     O      0.969220000000     0.923960000000     0.966850000000    -0.363344   
O245     O      0.969200000000     0.530210000000     0.926480000000    -0.363204   
O246     O      0.969180000000     0.963920000000     0.573530000000    -0.363025   
O247     O      0.538430000000     0.926630000000     0.969490000000    -0.366877   
O248     O      0.538440000000     0.567480000000     0.530530000000    -0.366884   
O249     O      0.538280000000     0.966510000000     0.570970000000    -0.36648    
O250     O      0.538300000000     0.527590000000     0.929050000000    -0.366543   
O251     O      0.538450000000     0.567470000000     0.969500000000    -0.366815   
O252     O      0.538440000000     0.926640000000     0.530520000000    -0.367015   
O253     O      0.538270000000     0.966500000000     0.929030000000    -0.366418   
O254     O      0.538280000000     0.527600000000     0.570980000000    -0.36648    
O255     O      0.987710000000     0.997060000000     0.500010000000    -0.590555   
O256     O      0.784020000000     0.780200000000     0.676490000000    -0.363522   
O257     O      0.784040000000     0.713930000000     0.823520000000    -0.363337   
O258     O      0.783960000000     0.820170000000     0.783180000000    -0.363811   
O259     O      0.783960000000     0.673950000000     0.716840000000    -0.363787   
O260     O      0.784010000000     0.780200000000     0.823530000000    -0.36341    
O261     O      0.784010000000     0.713910000000     0.676480000000    -0.363371   
O262     O      0.783990000000     0.673960000000     0.783160000000    -0.363724   
O263     O      0.783970000000     0.820160000000     0.716840000000    -0.363945   
O264     O      0.714920000000     0.716510000000     0.679040000000    -0.366361   
O265     O      0.714910000000     0.777590000000     0.820970000000    -0.366474   
O266     O      0.714760000000     0.817470000000     0.719490000000    -0.367048   
O267     O      0.714780000000     0.676630000000     0.780530000000    -0.366985   
O268     O      0.714930000000     0.716500000000     0.820980000000    -0.366468   
O269     O      0.714920000000     0.777600000000     0.679040000000    -0.366549   
O270     O      0.714760000000     0.676640000000     0.719500000000    -0.366904   
O271     O      0.714750000000     0.817470000000     0.780520000000    -0.366928   
O272     O      0.765500000000     0.747060000000     0.750010000000    -0.591057   


