data_structure

_audit_creation_method RASPA-1.0
_audit_creation_date 2023-5-9
_audit_author_name 'Poobodin Mano'

_cell_length_a    45.9282
_cell_length_b    43.6104
_cell_length_c    46.0645
_cell_angle_alpha 90
_cell_angle_beta  90
_cell_angle_gamma 90
_cell_volume      92264.8

_symmetry_cell_setting          triclinic
_symmetry_space_group_name_Hall 'P 1'
_symmetry_space_group_name_H-M  'P 1'
_symmetry_Int_Tables_number     1

_symmetry_equiv_pos_as_xyz 'x,y,z'

loop_
_atom_site_label
_atom_site_type_symbol
_atom_site_fract_x
_atom_site_fract_y
_atom_site_fract_z
_atom_site_charge
C1       C      0.488400000000     0.110070000000     0.215280000000     0.398994   
C2       C      0.097660000000     0.553310000000     0.333170000000     0.393592   
C3       C      0.545710000000     0.145840000000     0.308980000000     0.399674   
C4       C      0.080930000000     0.572260000000     0.220660000000     0.398713   
C5       C      0.039910000000     0.491280000000     0.241170000000     0.389735   
C6       C      0.487350000000     0.110390000000     0.341080000000     0.397742   
C7       C      0.459080000000     0.058670000000     0.260720000000     0.389998   
C8       C      0.037300000000     0.507340000000     0.321980000000     0.394055   
C9       C      0.024910000000     0.245080000000     0.063090000000     0.390679   
C10      C      0.458560000000     0.330680000000     0.530320000000     0.389009   
C11      C      0.034640000000     0.338440000000     0.097340000000     0.390846   
C12      C      0.487230000000     0.245460000000     0.477000000000     0.397969   
C13      C      0.547690000000     0.288040000000     0.444690000000     0.402282   
C14      C      0.084050000000     0.362780000000     0.037090000000     0.3973     
C15      C      0.100100000000     0.248830000000     0.033160000000     0.395662   
C16      C      0.502030000000     0.378730000000     0.483160000000     0.394811   
C17      C      0.333870000000     0.058550000000     0.110410000000     0.393471   
C18      C      0.232620000000     0.517280000000     0.537460000000     0.399907   
C19      C      0.235650000000     0.088710000000     0.082160000000     0.394968   
C20      C      0.328050000000     0.487890000000     0.540400000000     0.39308    
C21      C      0.348850000000     0.553900000000     0.493420000000     0.387803   
C22      C      0.271340000000     0.141700000000     0.030070000000     0.391631   
C23      C      0.361000000000     0.110470000000     0.057140000000     0.393455   
C24      C      0.253570000000     0.567770000000     0.469540000000     0.3907     
C25      C      0.385440000000     0.355830000000     0.522120000000     0.0146896  
C26      C      0.347140000000     0.386750000000     0.500490000000    -0.0430231  
C27      C      0.325540000000     0.432150000000     0.026360000000    -0.0239073  
C28      C      0.347900000000     0.407200000000     0.524000000000     0.0132414  
C29      C      0.347230000000     0.447900000000     0.074780000000    -0.0251429  
C30      C      0.368170000000     0.421580000000     0.571210000000     0.0141483  
C31      C      0.365770000000     0.361470000000     0.499490000000    -0.0435041  
C32      C      0.367150000000     0.401580000000     0.547230000000    -0.00561263 
C33      C      0.386800000000     0.415110000000     0.594550000000    -0.0427886  
C34      C      0.404800000000     0.389440000000     0.594010000000    -0.0419735  
C35      C      0.423840000000     0.341760000000     0.570100000000    -0.0251121  
C36      C      0.404590000000     0.369660000000     0.570090000000     0.016221   
C37      C      0.405300000000     0.328150000000     0.520700000000    -0.0258557  
C38      C      0.385780000000     0.375570000000     0.546480000000    -0.00657681 
C39      C      0.459170000000     0.173670000000     0.489980000000     0.0167592  
C40      C      0.455500000000     0.128300000000     0.020640000000    -0.0440027  
C41      C      0.413970000000     0.121540000000     0.055520000000    -0.0257453  
C42      C      0.429710000000     0.139860000000     0.032660000000     0.0150978  
C43      C      0.377870000000     0.164390000000     0.059950000000    -0.0263623  
C44      C      0.393320000000     0.180970000000     0.035720000000     0.014717   
C45      C      0.469750000000     0.145550000000     0.500130000000    -0.0432523  
C46      C      0.418880000000     0.168540000000     0.023370000000    -0.00715518 
C47      C      0.382510000000     0.209100000000     0.025640000000    -0.0435437  
C48      C      0.395530000000     0.225300000000     0.502330000000    -0.0427486  
C49      C      0.436560000000     0.230210000000     0.466190000000    -0.0259112  
C50      C      0.421140000000     0.213340000000     0.490300000000     0.0156207  
C51      C      0.475750000000     0.190860000000     0.466870000000    -0.0247781  
C52      C      0.432670000000     0.185450000000     0.500990000000    -0.007399   
C53      C      0.162510000000     0.481450000000     0.050940000000     0.0162452  
C54      C      0.112050000000     0.467460000000     0.533110000000    -0.0417997  
C55      C      0.097690000000     0.413920000000     0.519440000000    -0.0242371  
C56      C      0.119960000000     0.436610000000     0.529830000000     0.0145027  
C57      C      0.134960000000     0.371650000000     0.526510000000    -0.0250688  
C58      C      0.156950000000     0.396360000000     0.532990000000     0.0139841  
C59      C      0.133520000000     0.490010000000     0.046070000000    -0.0421882  
C60      C      0.148860000000     0.427470000000     0.535060000000    -0.00530705 
C61      C      0.186060000000     0.387920000000     0.537280000000    -0.0427026  
C62      C      0.207040000000     0.409960000000     0.543610000000    -0.0429465  
C63      C      0.223250000000     0.464730000000     0.059070000000    -0.0252926  
C64      C      0.199370000000     0.440960000000     0.545910000000     0.0150969  
C65      C      0.184070000000     0.505040000000     0.061260000000    -0.0258313  
C66      C      0.170050000000     0.449810000000     0.542440000000    -0.00607428 
C67      C      0.160000000000     0.201240000000     0.510290000000     0.0151513  
C68      C      0.198360000000     0.181630000000     0.479090000000    -0.0410195  
C69      C      0.250550000000     0.179570000000     0.495590000000    -0.0237592  
C70      C      0.219090000000     0.187540000000     0.500610000000     0.0177259  
C71      C      0.264490000000     0.195750000000     0.045090000000    -0.0255796  
C72      C      0.233120000000     0.206070000000     0.048680000000     0.0149554  
C73      C      0.169030000000     0.187840000000     0.484090000000    -0.0430288  
C74      C      0.212460000000     0.200930000000     0.026360000000    -0.00593124 
C75      C      0.224210000000     0.220240000000     0.074470000000    -0.0422079  
C76      C      0.195240000000     0.229040000000     0.078340000000    -0.0423685  
C77      C      0.143330000000     0.233860000000     0.061730000000    -0.02566    
C78      C      0.174350000000     0.223510000000     0.056700000000     0.013719   
C79      C      0.128020000000     0.204920000000     0.516290000000    -0.0259103  
C80      C      0.182810000000     0.208830000000     0.030800000000    -0.00547063 
C81      C      0.420840000000     0.106130000000     0.377800000000     0.0149213  
C82      C      0.371100000000     0.580430000000     0.393520000000    -0.0429713  
C83      C      0.360870000000     0.555270000000     0.441420000000    -0.025231   
C84      C      0.380980000000     0.572370000000     0.421320000000     0.0135246  
C85      C      0.400280000000     0.559500000000     0.480610000000    -0.0260266  
C86      C      0.420060000000     0.571700000000     0.457300000000     0.0143417  
C87      C      0.392660000000     0.097310000000     0.369690000000    -0.0430932  
C88      C      0.409940000000     0.578630000000     0.429230000000    -0.00562138 
C89      C      0.449350000000     0.576760000000     0.464330000000    -0.0418854  
C90      C      0.471740000000     0.094870000000     0.439980000000    -0.0421078  
C91      C      0.480060000000     0.122810000000     0.393080000000    -0.0243014  
C92      C      0.460900000000     0.104350000000     0.413040000000     0.016061   
C93      C      0.438560000000     0.126580000000     0.358140000000    -0.0257816  
C94      C      0.432270000000     0.096360000000     0.404760000000    -0.00608955 
C95      C      0.222100000000     0.546580000000     0.399450000000     0.0135933  
C96      C      0.196120000000     0.517530000000     0.362490000000    -0.0427895  
C97      C      0.145010000000     0.530410000000     0.346710000000    -0.0247364  
C98      C      0.171150000000     0.535680000000     0.366250000000     0.0118268  
C99      C      0.117450000000     0.566090000000     0.381120000000    -0.0260413  
C100     C      0.146290000000     0.576300000000     0.392900000000     0.0143096  
C101     C      0.221110000000     0.522600000000     0.379180000000    -0.0432906  
C102     C      0.171550000000     0.559280000000     0.387080000000    -0.00604097 
C103     C      0.147520000000     0.601400000000     0.411910000000    -0.0434672  
C104     C      0.173630000000     0.609430000000     0.425250000000    -0.0427735  
C105     C      0.235160000000     0.097980000000     0.426170000000    -0.0253042  
C106     C      0.198600000000     0.591520000000     0.421050000000     0.0169213  
C107     C      0.254160000000     0.047130000000     0.409150000000    -0.0253587  
C108     C      0.197570000000     0.565890000000     0.402490000000    -0.00684129 
C109     C      0.150180000000     0.098700000000     0.193270000000     0.0160418  
C110     C      0.197550000000     0.626850000000     0.180500000000    -0.0426207  
C111     C      0.213190000000     0.639920000000     0.129730000000    -0.0248073  
C112     C      0.190680000000     0.628630000000     0.150950000000     0.0146684  
C113     C      0.177960000000     0.630000000000     0.089100000000    -0.0256576  
C114     C      0.155330000000     0.621910000000     0.111660000000     0.0141151  
C115     C      0.179160000000     0.098840000000     0.202630000000    -0.0433823  
C116     C      0.162440000000     0.620780000000     0.141450000000    -0.00618798 
C117     C      0.126750000000     0.615590000000     0.102850000000    -0.0427264  
C118     C      0.108840000000     0.092650000000     0.123980000000    -0.0427088  
C119     C      0.089740000000     0.100060000000     0.174620000000    -0.0253098  
C120     C      0.114690000000     0.096060000000     0.153640000000     0.0154561  
C121     C      0.126290000000     0.103100000000     0.215160000000    -0.0256962  
C122     C      0.143820000000     0.095660000000     0.163460000000    -0.00679773 
C123     C      0.404890000000     0.519600000000     0.219480000000     0.0158801  
C124     C      0.380590000000     0.496360000000     0.178240000000    -0.0421439  
C125     C      0.337610000000     0.520880000000     0.154030000000    -0.0248111  
C126     C      0.361280000000     0.521170000000     0.176560000000     0.0153451  
C127     C      0.330800000000     0.070220000000     0.162730000000    -0.0245175  
C128     C      0.350990000000     0.069090000000     0.188560000000     0.0131205  
C129     C      0.402140000000     0.495570000000     0.199490000000    -0.042403   
C130     C      0.370440000000     0.044480000000     0.192580000000    -0.00539298 
C131     C      0.349520000000     0.092420000000     0.209490000000    -0.0428131  
C132     C      0.367240000000     0.091650000000     0.234090000000    -0.0434546  
C133     C      0.405800000000     0.066910000000     0.265320000000    -0.025371   
C134     C      0.386680000000     0.067350000000     0.238520000000     0.015091   
C135     C      0.427600000000     0.517520000000     0.242950000000    -0.0255818  
C136     C      0.388140000000     0.043380000000     0.217860000000    -0.00706931 
C137     C      0.085160000000     0.201700000000     0.347660000000     0.01582    
C138     C      0.106950000000     0.224800000000     0.390370000000    -0.0422633  
C139     C      0.087700000000     0.273680000000     0.411890000000    -0.0242631  
C140     C      0.086350000000     0.248470000000     0.389710000000     0.016566   
C141     C      0.545380000000     0.298530000000     0.391670000000    -0.0250674  
C142     C      0.546220000000     0.273680000000     0.368670000000     0.0147007  
C143     C      0.106310000000     0.201620000000     0.369590000000    -0.0429976  
C144     C      0.567080000000     0.249810000000     0.369940000000    -0.00632932 
C145     C      0.525970000000     0.274170000000     0.345930000000    -0.0427599  
C146     C      0.525960000000     0.251160000000     0.324860000000    -0.0423182  
C147     C      0.545580000000     0.202350000000     0.303130000000    -0.0247421  
C148     C      0.545970000000     0.226890000000     0.326240000000     0.0144631  
C149     C      0.586660000000     0.175880000000     0.329210000000    -0.0250122  
C150     C      0.566610000000     0.226030000000     0.348910000000    -0.00559118 
C151     C      0.029830000000     0.434180000000     0.435060000000     0.0165683  
C152     C      0.066190000000     0.449370000000     0.399550000000    -0.0418799  
C153     C      0.051910000000     0.460540000000     0.347490000000    -0.0232493  
C154     C      0.044440000000     0.452630000000     0.378380000000     0.0155232  
C155     C      0.504240000000     0.460860000000     0.335990000000    -0.0235568  
C156     C      0.496890000000     0.446500000000     0.364880000000     0.0144697  
C157     C      0.058790000000     0.441270000000     0.427980000000    -0.0426079  
C158     C      0.015120000000     0.447640000000     0.385880000000    -0.00669745 
C159     C      0.467920000000     0.438710000000     0.371000000000    -0.0421712  
C160     C      0.460350000000     0.426690000000     0.398040000000    -0.0428352  
C161     C      0.472790000000     0.409700000000     0.448740000000    -0.0252853  
C162     C      0.481310000000     0.423780000000     0.419990000000     0.0157155  
C163     C      0.021060000000     0.427000000000     0.465750000000    -0.0272615  
C164     C      0.510230000000     0.433130000000     0.414560000000    -0.00563783 
C165     C      0.054690000000     0.367470000000     0.169430000000     0.0146625  
C166     C      0.081690000000     0.395190000000     0.206600000000    -0.0423155  
C167     C      0.059910000000     0.438700000000     0.235410000000    -0.0242803  
C168     C      0.057550000000     0.413930000000     0.212360000000     0.0133519  
C169     C      0.507630000000     0.446600000000     0.230250000000    -0.0253368  
C170     C      0.507220000000     0.424220000000     0.205490000000     0.0150121  
C171     C      0.080200000000     0.372090000000     0.185620000000    -0.0425639  
C172     C      0.031470000000     0.409050000000     0.196780000000    -0.00574312 
C173     C      0.481710000000     0.420810000000     0.189110000000    -0.0423419  
C174     C      0.480220000000     0.399180000000     0.166950000000    -0.0423825  
C175     C      0.501270000000     0.356680000000     0.137090000000    -0.0247074  
C176     C      0.504050000000     0.380180000000     0.160880000000     0.014187   
C177     C      0.053210000000     0.341400000000     0.147790000000    -0.0251042  
C178     C      0.030160000000     0.386010000000     0.174940000000    -0.00578348 
C179     C      0.490180000000     0.177300000000     0.095440000000     0.0157174  
C180     C      0.485110000000     0.124560000000     0.111680000000    -0.0441844  
C181     C      0.473440000000     0.110980000000     0.163470000000    -0.0258555  
C182     C      0.478610000000     0.134470000000     0.139890000000     0.0145916  
C183     C      0.957810000000     0.152450000000     0.194950000000    -0.0254351  
C184     C      0.968070000000     0.174750000000     0.172260000000     0.0161454  
C185     C      0.490470000000     0.145730000000     0.089640000000    -0.0438161  
C186     C      0.977070000000     0.164160000000     0.144770000000    -0.00737291 
C187     C      0.968030000000     0.206250000000     0.178200000000    -0.0433874  
C188     C      0.977400000000     0.227130000000     0.157310000000    -0.042076   
C189     C      0.997830000000     0.240400000000     0.108600000000    -0.0216295  
C190     C      0.986260000000     0.217060000000     0.129790000000     0.0120838  
C191     C      0.493840000000     0.199770000000     0.070920000000    -0.026327   
C192     C      0.484050000000     0.187680000000     0.123690000000    -0.00660201 
C193     C      0.488640000000     0.110810000000     0.716080000000     0.398523   
C194     C      0.097100000000     0.553650000000     0.833050000000     0.393229   
C195     C      0.545380000000     0.145940000000     0.810090000000     0.399538   
C196     C      0.080150000000     0.572480000000     0.720600000000     0.39865    
C197     C      0.039170000000     0.491490000000     0.741150000000     0.389613   
C198     C      0.486930000000     0.109920000000     0.841930000000     0.397655   
C199     C      0.458780000000     0.059170000000     0.761060000000     0.390026   
C200     C      0.036850000000     0.507570000000     0.822150000000     0.393748   
C201     C      0.023320000000     0.245310000000     0.562980000000     0.390853   
C202     C      0.459670000000     0.331230000000     0.031210000000     0.388454   
C203     C      0.033550000000     0.338950000000     0.596830000000     0.390567   
C204     C      0.488330000000     0.245540000000     0.977870000000     0.397894   
C205     C      0.548560000000     0.288610000000     0.945260000000     0.402007   
C206     C      0.082780000000     0.362260000000     0.534910000000     0.397647   
C207     C      0.098150000000     0.248150000000     0.533780000000     0.396081   
C208     C      0.503330000000     0.378790000000     0.984210000000     0.394424   
C209     C      0.333560000000     0.059190000000     0.610490000000     0.39361    
C210     C      0.232790000000     0.517300000000     0.041530000000     0.400772   
C211     C      0.235280000000     0.087970000000     0.582170000000     0.395304   
C212     C      0.326720000000     0.486480000000     0.041690000000     0.393774   
C213     C      0.348160000000     0.551100000000     0.993540000000     0.387758   
C214     C      0.270100000000     0.141890000000     0.530520000000     0.391821   
C215     C      0.360350000000     0.111650000000     0.557530000000     0.393725   
C216     C      0.252940000000     0.566380000000     0.970270000000     0.390335   
C217     C      0.385990000000     0.355750000000     0.023250000000     0.0145576  
C218     C      0.346900000000     0.385760000000     0.001880000000    -0.0425594  
C219     C      0.326730000000     0.433740000000     0.524790000000    -0.024547   
C220     C      0.347090000000     0.405960000000     0.025590000000     0.0127906  
C221     C      0.348670000000     0.449220000000     0.573120000000    -0.0262708  
C222     C      0.367270000000     0.420710000000     0.072740000000     0.0137133  
C223     C      0.366120000000     0.360990000000     0.000700000000    -0.0433674  
C224     C      0.366700000000     0.400860000000     0.048630000000    -0.00535106 
C225     C      0.386410000000     0.414860000000     0.095800000000    -0.0424207  
C226     C      0.405070000000     0.389720000000     0.095040000000    -0.0421739  
C227     C      0.425010000000     0.342540000000     0.070980000000    -0.0252526  
C228     C      0.405130000000     0.369950000000     0.071110000000     0.0161566  
C229     C      0.406420000000     0.328530000000     0.021650000000    -0.0255102  
C230     C      0.386000000000     0.375400000000     0.047660000000    -0.00667038 
C231     C      0.460240000000     0.173340000000     0.990160000000     0.0160993  
C232     C      0.454600000000     0.129290000000     0.521330000000    -0.0442522  
C233     C      0.413210000000     0.123270000000     0.556490000000    -0.0256839  
C234     C      0.428810000000     0.141040000000     0.533160000000     0.0151175  
C235     C      0.376680000000     0.165790000000     0.559800000000    -0.0262166  
C236     C      0.392210000000     0.182020000000     0.535390000000     0.0143307  
C237     C      0.470730000000     0.144980000000     0.999790000000    -0.0434519  
C238     C      0.417850000000     0.169460000000     0.523310000000    -0.00688112 
C239     C      0.381350000000     0.209930000000     0.524820000000    -0.0432227  
C240     C      0.396670000000     0.224830000000     0.003370000000    -0.0419813  
C241     C      0.437620000000     0.230260000000     0.967220000000    -0.0256354  
C242     C      0.422240000000     0.213030000000     0.991120000000     0.0147602  
C243     C      0.476910000000     0.190970000000     0.967410000000    -0.0247984  
C244     C      0.433740000000     0.184940000000     0.001340000000    -0.00672713 
C245     C      0.161710000000     0.480720000000     0.545810000000     0.0161394  
C246     C      0.113130000000     0.468380000000     0.037060000000    -0.0416868  
C247     C      0.098840000000     0.414870000000     0.023080000000    -0.0240031  
C248     C      0.121050000000     0.437530000000     0.033700000000     0.0144341  
C249     C      0.136190000000     0.372690000000     0.029570000000    -0.0251843  
C250     C      0.158050000000     0.397260000000     0.036910000000     0.0141367  
C251     C      0.132600000000     0.489190000000     0.541540000000    -0.0422961  
C252     C      0.149880000000     0.428330000000     0.039300000000    -0.00510832 
C253     C      0.187110000000     0.388780000000     0.041520000000    -0.0427914  
C254     C      0.207930000000     0.410710000000     0.048670000000    -0.0426093  
C255     C      0.222710000000     0.464130000000     0.552610000000    -0.0262756  
C256     C      0.200130000000     0.441600000000     0.051580000000     0.0150568  
C257     C      0.183460000000     0.504470000000     0.555340000000    -0.0257621  
C258     C      0.170910000000     0.450550000000     0.047420000000    -0.00610126 
C259     C      0.162060000000     0.201730000000     0.009330000000     0.0152354  
C260     C      0.200300000000     0.181420000000     0.978360000000    -0.0408496  
C261     C      0.252510000000     0.179460000000     0.994850000000    -0.0236294  
C262     C      0.221050000000     0.187400000000     0.999840000000     0.0176975  
C263     C      0.262430000000     0.195730000000     0.545960000000    -0.0255519  
C264     C      0.231040000000     0.205880000000     0.549590000000     0.015026   
C265     C      0.171020000000     0.187950000000     0.983280000000    -0.043364   
C266     C      0.210420000000     0.200800000000     0.527230000000    -0.00613514 
C267     C      0.222050000000     0.219800000000     0.575490000000    -0.0422949  
C268     C      0.193020000000     0.228390000000     0.579410000000    -0.0423235  
C269     C      0.141080000000     0.233010000000     0.562820000000    -0.025757   
C270     C      0.172170000000     0.222850000000     0.557750000000     0.0136652  
C271     C      0.130090000000     0.206040000000     0.015090000000    -0.0257773  
C272     C      0.180720000000     0.208420000000     0.531750000000    -0.00549095 
C273     C      0.420340000000     0.104620000000     0.878340000000     0.0149328  
C274     C      0.369800000000     0.576310000000     0.893410000000    -0.0430346  
C275     C      0.360060000000     0.551100000000     0.941420000000    -0.0254442  
C276     C      0.379870000000     0.568480000000     0.921200000000     0.0136038  
C277     C      0.399670000000     0.555180000000     0.980200000000    -0.0264382  
C278     C      0.419030000000     0.568610000000     0.957140000000     0.0145366  
C279     C      0.392260000000     0.095660000000     0.870060000000    -0.0431125  
C280     C      0.408690000000     0.575460000000     0.929110000000    -0.00566915 
C281     C      0.448150000000     0.574610000000     0.964230000000    -0.0418277  
C282     C      0.471190000000     0.093040000000     0.940510000000    -0.0418695  
C283     C      0.479340000000     0.121750000000     0.894000000000    -0.024102   
C284     C      0.460330000000     0.102790000000     0.913670000000     0.0161018  
C285     C      0.437940000000     0.125490000000     0.858950000000    -0.0257769  
C286     C      0.431790000000     0.094610000000     0.905210000000    -0.00602083 
C287     C      0.221160000000     0.545140000000     0.900130000000     0.0134651  
C288     C      0.194950000000     0.516510000000     0.863040000000    -0.042766   
C289     C      0.144300000000     0.530510000000     0.846660000000    -0.024626   
C290     C      0.170320000000     0.535240000000     0.866480000000     0.0117282  
C291     C      0.117090000000     0.566910000000     0.880760000000    -0.0259873  
C292     C      0.146040000000     0.576540000000     0.892700000000     0.0141761  
C293     C      0.219870000000     0.521090000000     0.879960000000    -0.0433544  
C294     C      0.171010000000     0.558930000000     0.887200000000    -0.00603402 
C295     C      0.147610000000     0.601710000000     0.911600000000    -0.0434249  
C296     C      0.173750000000     0.609220000000     0.925150000000    -0.0428535  
C297     C      0.235130000000     0.097680000000     0.926240000000    -0.0253632  
C298     C      0.198380000000     0.590720000000     0.921280000000     0.0167874  
C299     C      0.253850000000     0.046680000000     0.909310000000    -0.0252636  
C300     C      0.197010000000     0.565020000000     0.902830000000    -0.00687718 
C301     C      0.149660000000     0.098580000000     0.692980000000     0.0160696  
C302     C      0.196800000000     0.626810000000     0.680300000000    -0.042718   
C303     C      0.212510000000     0.639490000000     0.629480000000    -0.024911   
C304     C      0.189970000000     0.628350000000     0.650730000000     0.014708   
C305     C      0.177370000000     0.629090000000     0.588830000000    -0.0258188  
C306     C      0.154690000000     0.621330000000     0.611440000000     0.0141083  
C307     C      0.178630000000     0.098750000000     0.702410000000    -0.0433192  
C308     C      0.161740000000     0.620450000000     0.641240000000    -0.00622932 
C309     C      0.126110000000     0.615010000000     0.602630000000    -0.0427821  
C310     C      0.108450000000     0.091630000000     0.623690000000    -0.0427011  
C311     C      0.089250000000     0.099790000000     0.674200000000    -0.02531    
C312     C      0.114250000000     0.095450000000     0.653310000000     0.01544    
C313     C      0.125740000000     0.103400000000     0.714750000000    -0.025691   
C314     C      0.143350000000     0.095120000000     0.663200000000    -0.00676173 
C315     C      0.403950000000     0.519440000000     0.719010000000     0.0158692  
C316     C      0.379780000000     0.496400000000     0.677610000000    -0.0421226  
C317     C      0.336720000000     0.520920000000     0.653530000000    -0.0248317  
C318     C      0.360370000000     0.521140000000     0.676070000000     0.0154335  
C319     C      0.330440000000     0.070810000000     0.662820000000    -0.0244351  
C320     C      0.350660000000     0.069710000000     0.688640000000     0.0130651  
C321     C      0.401320000000     0.495550000000     0.698860000000    -0.0423976  
C322     C      0.370120000000     0.045120000000     0.692660000000    -0.00537556 
C323     C      0.349190000000     0.093060000000     0.709570000000    -0.0427258  
C324     C      0.366920000000     0.092310000000     0.734160000000    -0.0435582  
C325     C      0.405500000000     0.067600000000     0.765390000000    -0.025397   
C326     C      0.386370000000     0.068010000000     0.738590000000     0.0150592  
C327     C      0.426670000000     0.517300000000     0.742470000000    -0.02567    
C328     C      0.387820000000     0.044030000000     0.717940000000    -0.00709036 
C329     C      0.085390000000     0.202050000000     0.847400000000     0.0158975  
C330     C      0.107500000000     0.225050000000     0.890000000000    -0.0421986  
C331     C      0.088430000000     0.273900000000     0.911750000000    -0.0243527  
C332     C      0.086920000000     0.248740000000     0.889530000000     0.0165613  
C333     C      0.545810000000     0.299190000000     0.892280000000    -0.0251451  
C334     C      0.546450000000     0.274200000000     0.869410000000     0.0147428  
C335     C      0.106710000000     0.201920000000     0.869180000000    -0.0430447  
C336     C      0.567300000000     0.250320000000     0.870630000000    -0.00636396 
C337     C      0.525990000000     0.274540000000     0.846850000000    -0.0427994  
C338     C      0.525790000000     0.251390000000     0.825930000000    -0.0422295  
C339     C      0.545210000000     0.202440000000     0.804300000000    -0.0247265  
C340     C      0.545780000000     0.227110000000     0.827290000000     0.0144211  
C341     C      0.586330000000     0.175940000000     0.830360000000    -0.0251292  
C342     C      0.566610000000     0.226370000000     0.849790000000    -0.00553054 
C343     C      0.030880000000     0.434160000000     0.935180000000     0.0165819  
C344     C      0.066730000000     0.449270000000     0.899140000000    -0.041859   
C345     C      0.051680000000     0.460660000000     0.847340000000    -0.0232632  
C346     C      0.044660000000     0.452700000000     0.878330000000     0.0154955  
C347     C      0.503260000000     0.461400000000     0.837180000000    -0.0236808  
C348     C      0.496400000000     0.447040000000     0.866190000000     0.0145267  
C349     C      0.059750000000     0.441120000000     0.927660000000    -0.0426788  
C350     C      0.015440000000     0.447830000000     0.886280000000    -0.00671086 
C351     C      0.467500000000     0.439490000000     0.872890000000    -0.0421336  
C352     C      0.460400000000     0.427440000000     0.900040000000    -0.0428448  
C353     C      0.473760000000     0.410090000000     0.950380000000    -0.0252505  
C354     C      0.481790000000     0.424240000000     0.921520000000     0.0156972  
C355     C      0.022570000000     0.426920000000     0.965990000000    -0.0272327  
C356     C      0.510660000000     0.433360000000     0.915540000000    -0.00565286 
C357     C      0.053850000000     0.368060000000     0.668910000000     0.0146554  
C358     C      0.080930000000     0.395570000000     0.706150000000    -0.0423144  
C359     C      0.059220000000     0.438940000000     0.735210000000    -0.0242924  
C360     C      0.056810000000     0.414280000000     0.712050000000     0.0133711  
C361     C      0.506580000000     0.446930000000     0.730010000000    -0.0253745  
C362     C      0.506240000000     0.424810000000     0.705030000000     0.0150404  
C363     C      0.079390000000     0.372590000000     0.685060000000    -0.0425652  
C364     C      0.030690000000     0.409480000000     0.696510000000    -0.00577169 
C365     C      0.480770000000     0.421530000000     0.688570000000    -0.0423029  
C366     C      0.479350000000     0.400120000000     0.666220000000    -0.0424826  
C367     C      0.500480000000     0.357960000000     0.636010000000    -0.0248703  
C368     C      0.503210000000     0.381210000000     0.660030000000     0.0141455  
C369     C      0.052300000000     0.342060000000     0.647190000000    -0.0251783  
C370     C      0.029340000000     0.386570000000     0.674550000000    -0.00579958 
C371     C      0.489350000000     0.177950000000     0.595840000000     0.0157249  
C372     C      0.484680000000     0.125280000000     0.612380000000    -0.0442048  
C373     C      0.473640000000     0.111900000000     0.664330000000    -0.0258614  
C374     C      0.478500000000     0.135310000000     0.640620000000     0.0146034  
C375     C      0.957050000000     0.152920000000     0.695340000000    -0.0252776  
C376     C      0.967080000000     0.175200000000     0.672530000000     0.0160902  
C377     C      0.489710000000     0.146370000000     0.590180000000    -0.0438838  
C378     C      0.975960000000     0.164560000000     0.645010000000    -0.00735229 
C379     C      0.966950000000     0.206710000000     0.678380000000    -0.0433651  
C380     C      0.976130000000     0.227570000000     0.657390000000    -0.0420667  
C381     C      0.996230000000     0.240780000000     0.608530000000    -0.0216707  
C382     C      0.984880000000     0.217460000000     0.629840000000     0.0121337  
C383     C      0.492600000000     0.200320000000     0.571170000000    -0.0263374  
C384     C      0.483550000000     0.188450000000     0.624120000000    -0.00660786 
C385     C      0.509800000000     0.613090000000     0.218900000000     0.397419   
C386     C      0.098830000000     0.055120000000     0.331830000000     0.391885   
C387     C      0.549080000000     0.633690000000     0.319960000000     0.396401   
C388     C      0.079910000000     0.075350000000     0.222030000000     0.403471   
C389     C      0.038790000000     0.992560000000     0.241000000000     0.387354   
C390     C      0.487620000000     0.596770000000     0.343000000000     0.396136   
C391     C      0.463260000000     0.557550000000     0.256950000000     0.390975   
C392     C      0.036830000000     0.011550000000     0.324830000000     0.393371   
C393     C      0.023250000000     0.742850000000     0.064690000000     0.391829   
C394     C      0.458950000000     0.824030000000     0.530730000000     0.390125   
C395     C      0.034490000000     0.837270000000     0.098190000000     0.390327   
C396     C      0.486220000000     0.741120000000     0.480100000000     0.397901   
C397     C      0.553360000000     0.781410000000     0.451190000000     0.403589   
C398     C      0.084490000000     0.858520000000     0.036000000000     0.397437   
C399     C      0.097680000000     0.743450000000     0.038140000000     0.396731   
C400     C      0.503750000000     0.873660000000     0.482870000000     0.394214   
C401     C      0.322510000000     0.561020000000     0.119350000000     0.396542   
C402     C      0.238170000000     0.011020000000     0.524290000000     0.396603   
C403     C      0.229730000000     0.614140000000     0.084760000000     0.396688   
C404     C      0.332910000000     0.982090000000     0.533410000000     0.393522   
C405     C      0.356600000000     0.045960000000     0.484660000000     0.391755   
C406     C      0.269530000000     0.647220000000     0.033720000000     0.390393   
C407     C      0.356390000000     0.614420000000     0.065740000000     0.392971   
C408     C      0.260960000000     0.063910000000     0.460530000000     0.39016    
C409     C      0.386520000000     0.847790000000     0.520840000000     0.0146003  
C410     C      0.349540000000     0.879000000000     0.497430000000    -0.0430925  
C411     C      0.327980000000     0.926240000000     0.020810000000    -0.0233676  
C412     C      0.350320000000     0.900200000000     0.520330000000     0.0130826  
C413     C      0.348910000000     0.942790000000     0.069270000000    -0.0252037  
C414     C      0.369890000000     0.915620000000     0.567560000000     0.014099   
C415     C      0.367530000000     0.853200000000     0.497600000000    -0.0434406  
C416     C      0.368830000000     0.894810000000     0.544200000000    -0.00560436 
C417     C      0.387750000000     0.909380000000     0.591550000000    -0.0428862  
C418     C      0.405030000000     0.883160000000     0.592230000000    -0.0420012  
C419     C      0.423470000000     0.834270000000     0.570020000000    -0.0248429  
C420     C      0.404820000000     0.862600000000     0.568920000000     0.0162967  
C421     C      0.405900000000     0.819700000000     0.520650000000    -0.0256065  
C422     C      0.386730000000     0.868260000000     0.544680000000    -0.00670281 
C423     C      0.455600000000     0.670800000000     0.494720000000     0.0169437  
C424     C      0.449830000000     0.626450000000     0.025910000000    -0.0456641  
C425     C      0.409670000000     0.623270000000     0.062810000000    -0.0259305  
C426     C      0.425140000000     0.639780000000     0.038570000000     0.0145642  
C427     C      0.375310000000     0.667700000000     0.066780000000    -0.0264933  
C428     C      0.390740000000     0.682750000000     0.041600000000     0.0143443  
C429     C      0.464850000000     0.642230000000     0.505040000000    -0.0431184  
C430     C      0.415300000000     0.668680000000     0.028820000000    -0.00792218 
C431     C      0.380910000000     0.711090000000     0.031050000000    -0.0438085  
C432     C      0.394760000000     0.725990000000     0.507220000000    -0.042518   
C433     C      0.435040000000     0.727640000000     0.469920000000    -0.0258147  
C434     C      0.419460000000     0.712360000000     0.494880000000     0.0162522  
C435     C      0.472770000000     0.686740000000     0.471230000000    -0.0248246  
C436     C      0.429910000000     0.684210000000     0.506010000000    -0.00745132 
C437     C      0.166860000000     0.975550000000     0.037230000000     0.0157538  
C438     C      0.115770000000     0.962600000000     0.527410000000    -0.0418086  
C439     C      0.099310000000     0.908820000000     0.517740000000    -0.0241033  
C440     C      0.122750000000     0.931390000000     0.525250000000     0.0139631  
C441     C      0.136000000000     0.865860000000     0.525570000000    -0.0249947  
C442     C      0.158970000000     0.890410000000     0.527920000000     0.013563   
C443     C      0.137780000000     0.984620000000     0.034000000000    -0.0435281  
C444     C      0.151770000000     0.921800000000     0.528610000000    -0.00550998 
C445     C      0.188200000000     0.881470000000     0.530040000000    -0.0430055  
C446     C      0.210120000000     0.903320000000     0.532870000000    -0.0430141  
C447     C      0.227960000000     0.957740000000     0.040190000000    -0.025327   
C448     C      0.203310000000     0.934620000000     0.534000000000     0.0139373  
C449     C      0.189410000000     0.998970000000     0.045300000000    -0.026637   
C450     C      0.173990000000     0.943980000000     0.532740000000    -0.00626486 
C451     C      0.157290000000     0.696380000000     0.516700000000     0.0147872  
C452     C      0.195570000000     0.680090000000     0.483760000000    -0.0403981  
C453     C      0.248530000000     0.683470000000     0.497640000000    -0.0234249  
C454     C      0.216760000000     0.688630000000     0.504030000000     0.0194556  
C455     C      0.262910000000     0.701680000000     0.046060000000    -0.0260068  
C456     C      0.230980000000     0.708750000000     0.051280000000     0.0159573  
C457     C      0.166100000000     0.683410000000     0.490240000000    -0.0427217  
C458     C      0.209830000000     0.701220000000     0.030020000000    -0.00666002 
C459     C      0.222050000000     0.722040000000     0.077500000000    -0.0433163  
C460     C      0.192620000000     0.727920000000     0.082720000000    -0.0434433  
C461     C      0.139750000000     0.727400000000     0.068360000000    -0.0256306  
C462     C      0.171370000000     0.720290000000     0.062040000000     0.0120111  
C463     C      0.125480000000     0.697590000000     0.524300000000    -0.0256431  
C464     C      0.179880000000     0.706180000000     0.035820000000    -0.00621824 
C465     C      0.418970000000     0.599660000000     0.380660000000     0.0140439  
C466     C      0.376200000000     0.078250000000     0.387620000000    -0.0430317  
C467     C      0.369620000000     0.046460000000     0.432660000000    -0.0256498  
C468     C      0.387220000000     0.068310000000     0.414430000000     0.01393    
C469     C      0.408510000000     0.049940000000     0.471520000000    -0.0260644  
C470     C      0.426270000000     0.068800000000     0.450620000000     0.0149657  
C471     C      0.389750000000     0.594340000000     0.373580000000    -0.0432091  
C472     C      0.415120000000     0.077790000000     0.423400000000    -0.00550268 
C473     C      0.454560000000     0.077420000000     0.458610000000    -0.0414086  
C474     C      0.468460000000     0.588990000000     0.443970000000    -0.0430745  
C475     C      0.479890000000     0.609650000000     0.394580000000    -0.0249451  
C476     C      0.458690000000     0.596520000000     0.416100000000     0.0157037  
C477     C      0.438900000000     0.614620000000     0.358730000000    -0.0250107  
C478     C      0.429240000000     0.591830000000     0.408610000000    -0.0060959  
C479     C      0.225750000000     0.043370000000     0.392520000000     0.0136335  
C480     C      0.196160000000     0.014330000000     0.358370000000    -0.041753   
C481     C      0.145010000000     0.029520000000     0.344890000000    -0.024673   
C482     C      0.172450000000     0.034150000000     0.362690000000     0.0116838  
C483     C      0.121320000000     0.069010000000     0.378390000000    -0.0260022  
C484     C      0.151250000000     0.077340000000     0.388890000000     0.0142501  
C485     C      0.222290000000     0.018590000000     0.373420000000    -0.0433625  
C486     C      0.175230000000     0.058520000000     0.382510000000    -0.00572435 
C487     C      0.154800000000     0.102770000000     0.407190000000    -0.043145   
C488     C      0.181930000000     0.109530000000     0.419080000000    -0.0422294  
C489     C      0.226970000000     0.600590000000     0.434680000000    -0.0261782  
C490     C      0.205760000000     0.090260000000     0.413920000000     0.016701   
C491     C      0.249320000000     0.551270000000     0.417780000000    -0.0258478  
C492     C      0.202390000000     0.064100000000     0.396320000000    -0.00671189 
C493     C      0.148580000000     0.609300000000     0.191520000000     0.013737   
C494     C      0.201730000000     0.095080000000     0.182830000000    -0.042074   
C495     C      0.221180000000     0.086620000000     0.132990000000    -0.0243516  
C496     C      0.195880000000     0.091380000000     0.153170000000     0.0127046  
C497     C      0.183960000000     0.080420000000     0.091910000000    -0.0231381  
C498     C      0.160510000000     0.087460000000     0.113700000000     0.0126263  
C499     C      0.176810000000     0.617070000000     0.200500000000    -0.0430921  
C500     C      0.166900000000     0.091580000000     0.143290000000    -0.00459983 
C501     C      0.131470000000     0.088130000000     0.104300000000    -0.0417507  
C502     C      0.105470000000     0.607910000000     0.123190000000    -0.0422869  
C503     C      0.088430000000     0.598990000000     0.174300000000    -0.024824   
C504     C      0.112360000000     0.605760000000     0.152800000000     0.0143213  
C505     C      0.127090000000     0.599100000000     0.214210000000    -0.0258067  
C506     C      0.140990000000     0.611810000000     0.162030000000    -0.0057763  
C507     C      0.407190000000     0.018340000000     0.222140000000     0.0183739  
C508     C      0.391160000000     0.995960000000     0.176760000000    -0.0432056  
C509     C      0.354370000000     0.021100000000     0.144560000000    -0.0256519  
C510     C      0.372410000000     0.020830000000     0.171850000000     0.014031   
C511     C      0.320740000000     0.572390000000     0.172120000000    -0.0245908  
C512     C      0.344090000000     0.570580000000     0.195260000000     0.0139539  
C513     C      0.408210000000     0.994630000000     0.201720000000    -0.0429892  
C514     C      0.363480000000     0.545470000000     0.196620000000    -0.00546509 
C515     C      0.346340000000     0.594110000000     0.215880000000    -0.0423694  
C516     C      0.367700000000     0.593140000000     0.237410000000    -0.0426025  
C517     C      0.410420000000     0.568190000000     0.262320000000    -0.0250456  
C518     C      0.387440000000     0.568660000000     0.238800000000     0.0146394  
C519     C      0.425040000000     0.016190000000     0.249440000000    -0.0251144  
C520     C      0.385350000000     0.544570000000     0.218420000000    -0.00595289 
C521     C      0.086650000000     0.696140000000     0.351850000000     0.0155928  
C522     C      0.108540000000     0.718600000000     0.394820000000    -0.0422698  
C523     C      0.091090000000     0.768690000000     0.415410000000    -0.0243457  
C524     C      0.089110000000     0.743310000000     0.393450000000     0.0165372  
C525     C      0.557360000000     0.791260000000     0.398220000000    -0.0252898  
C526     C      0.557270000000     0.764890000000     0.376790000000     0.0148884  
C527     C      0.107270000000     0.695220000000     0.374270000000    -0.0432315  
C528     C      0.575130000000     0.738800000000     0.381220000000    -0.00684121 
C529     C      0.539060000000     0.766110000000     0.352440000000    -0.0428797  
C530     C      0.538200000000     0.741770000000     0.332810000000    -0.042234   
C531     C      0.554280000000     0.689840000000     0.315450000000    -0.0248625  
C532     C      0.555090000000     0.715400000000     0.337390000000     0.0141169  
C533     C      0.588040000000     0.659240000000     0.347840000000    -0.0252832  
C534     C      0.573430000000     0.713610000000     0.361820000000    -0.00537437 
C535     C      0.031160000000     0.933080000000     0.436730000000     0.0156258  
C536     C      0.066690000000     0.950450000000     0.401300000000    -0.0422806  
C537     C      0.051070000000     0.964670000000     0.350290000000    -0.0233516  
C538     C      0.044390000000     0.955340000000     0.380990000000     0.0155978  
C539     C      0.498150000000     0.979060000000     0.345710000000    -0.0265035  
C540     C      0.492770000000     0.958470000000     0.371550000000     0.0141741  
C541     C      0.059970000000     0.940520000000     0.429380000000    -0.042378   
C542     C      0.015280000000     0.950170000000     0.389000000000    -0.00752605 
C543     C      0.464240000000     0.949420000000     0.378260000000    -0.0430124  
C544     C      0.458580000000     0.932070000000     0.403120000000    -0.0431675  
C545     C      0.474850000000     0.904810000000     0.448570000000    -0.0258127  
C546     C      0.481020000000     0.925220000000     0.422730000000     0.0144031  
C547     C      0.023010000000     0.924120000000     0.467150000000    -0.0252535  
C548     C      0.509370000000     0.936020000000     0.417090000000    -0.00579441 
C549     C      0.054240000000     0.867990000000     0.169950000000     0.0145371  
C550     C      0.080780000000     0.896100000000     0.207200000000    -0.042401   
C551     C      0.058660000000     0.939920000000     0.235360000000    -0.0244706  
C552     C      0.056610000000     0.915000000000     0.212410000000     0.0133438  
C553     C      0.504390000000     0.952120000000     0.227670000000    -0.0257069  
C554     C      0.504640000000     0.929140000000     0.203400000000     0.0151069  
C555     C      0.079530000000     0.872770000000     0.186430000000    -0.0425896  
C556     C      0.030770000000     0.910030000000     0.196480000000    -0.00577426 
C557     C      0.479420000000     0.925050000000     0.186730000000    -0.0424847  
C558     C      0.478390000000     0.902800000000     0.165120000000    -0.0425079  
C559     C      0.500050000000     0.859620000000     0.136720000000    -0.0247077  
C560     C      0.502440000000     0.883850000000     0.159880000000     0.0139794  
C561     C      0.053030000000     0.841620000000     0.148580000000    -0.0252064  
C562     C      0.029690000000     0.886640000000     0.174930000000    -0.00583462 
C563     C      0.484300000000     0.686600000000     0.099900000000     0.0179814  
C564     C      0.494290000000     0.634720000000     0.115850000000    -0.0416669  
C565     C      0.510250000000     0.622390000000     0.166420000000    -0.0225159  
C566     C      0.499670000000     0.645070000000     0.144190000000     0.0124046  
C567     C      0.956220000000     0.650330000000     0.196260000000    -0.0253365  
C568     C      0.965690000000     0.672710000000     0.173280000000     0.0158487  
C569     C      0.486490000000     0.655220000000     0.094020000000    -0.0449691  
C570     C      0.975200000000     0.662130000000     0.145940000000    -0.00752016 
C571     C      0.964710000000     0.704250000000     0.178920000000    -0.0433545  
C572     C      0.973760000000     0.725210000000     0.157950000000    -0.0421917  
C573     C      0.994770000000     0.738550000000     0.109460000000    -0.021591   
C574     C      0.983320000000     0.715140000000     0.130670000000     0.0122113  
C575     C      0.476690000000     0.708760000000     0.075960000000    -0.0273243  
C576     C      0.489250000000     0.697430000000     0.128420000000    -0.00790151 
C577     C      0.508850000000     0.613530000000     0.719280000000     0.397144   
C578     C      0.098620000000     0.055560000000     0.831760000000     0.391785   
C579     C      0.547270000000     0.634100000000     0.820160000000     0.396326   
C580     C      0.079400000000     0.075640000000     0.721860000000     0.403439   
C581     C      0.038340000000     0.993090000000     0.740980000000     0.387352   
C582     C      0.485950000000     0.596130000000     0.843130000000     0.395982   
C583     C      0.462090000000     0.557410000000     0.756860000000     0.390632   
C584     C      0.036620000000     0.012050000000     0.824910000000     0.393355   
C585     C      0.022450000000     0.742960000000     0.564890000000     0.392147   
C586     C      0.458740000000     0.824400000000     0.031090000000     0.390019   
C587     C      0.033940000000     0.837630000000     0.598090000000     0.39062    
C588     C      0.486210000000     0.741240000000     0.980160000000     0.398123   
C589     C      0.552770000000     0.782310000000     0.950730000000     0.403457   
C590     C      0.083900000000     0.858210000000     0.535310000000     0.397718   
C591     C      0.096460000000     0.742740000000     0.539240000000     0.397311   
C592     C      0.503310000000     0.873940000000     0.983470000000     0.394013   
C593     C      0.321880000000     0.561360000000     0.619020000000     0.396754   
C594     C      0.238230000000     0.011100000000     0.026390000000     0.396677   
C595     C      0.229290000000     0.613820000000     0.584550000000     0.396381   
C596     C      0.331280000000     0.981030000000     0.034190000000     0.393867   
C597     C      0.356350000000     0.043980000000     0.984560000000     0.391785   
C598     C      0.268670000000     0.647900000000     0.533880000000     0.390315   
C599     C      0.356010000000     0.615690000000     0.566010000000     0.393028   
C600     C      0.260760000000     0.063520000000     0.960650000000     0.390079   
C601     C      0.385870000000     0.847660000000     0.021470000000     0.0149152  
C602     C      0.348300000000     0.878260000000     0.998270000000    -0.0429651  
C603     C      0.329960000000     0.927420000000     0.519790000000    -0.0244112  
C604     C      0.348550000000     0.899200000000     0.021400000000     0.0127494  
C605     C      0.351290000000     0.943990000000     0.568050000000    -0.0263343  
C606     C      0.367980000000     0.914770000000     0.068650000000     0.0136712  
C607     C      0.366760000000     0.852840000000     0.998280000000    -0.0437702  
C608     C      0.367350000000     0.894150000000     0.045120000000    -0.00527511 
C609     C      0.386310000000     0.908990000000     0.092390000000    -0.0424831  
C610     C      0.404140000000     0.883190000000     0.092840000000    -0.0421194  
C611     C      0.423330000000     0.834720000000     0.070430000000    -0.0248483  
C612     C      0.404160000000     0.862670000000     0.069480000000     0.0162644  
C613     C      0.405680000000     0.819910000000     0.021110000000    -0.0255436  
C614     C      0.385800000000     0.868020000000     0.045380000000    -0.00686583 
C615     C      0.455860000000     0.670480000000     0.994350000000     0.0157355  
C616     C      0.449420000000     0.627310000000     0.526900000000    -0.0454733  
C617     C      0.409250000000     0.624930000000     0.563840000000    -0.0258278  
C618     C      0.424710000000     0.640890000000     0.539290000000     0.0142658  
C619     C      0.374530000000     0.669130000000     0.566680000000    -0.0263129  
C620     C      0.390220000000     0.683850000000     0.541460000000     0.0138848  
C621     C      0.465180000000     0.641750000000     0.004210000000    -0.0422043  
C622     C      0.414890000000     0.669600000000     0.529040000000    -0.00743109 
C623     C      0.380470000000     0.712030000000     0.530460000000    -0.0434251  
C624     C      0.395010000000     0.725380000000     0.007880000000    -0.041673   
C625     C      0.435010000000     0.727560000000     0.970310000000    -0.0255022  
C626     C      0.419640000000     0.711950000000     0.995210000000     0.0152929  
C627     C      0.472950000000     0.686840000000     0.971040000000    -0.0243778  
C628     C      0.430210000000     0.683670000000     0.005920000000    -0.00646011 
C629     C      0.166560000000     0.975180000000     0.535290000000     0.0156527  
C630     C      0.116300000000     0.963040000000     0.027910000000    -0.0417931  
C631     C      0.099870000000     0.909140000000     0.018600000000    -0.0239556  
C632     C      0.123260000000     0.931800000000     0.026130000000     0.0139522  
C633     C      0.136490000000     0.866310000000     0.026200000000    -0.0251118  
C634     C      0.159420000000     0.890760000000     0.029620000000     0.0137957  
C635     C      0.137360000000     0.984190000000     0.533020000000    -0.0436631  
C636     C      0.152200000000     0.922170000000     0.030210000000    -0.00535397 
C637     C      0.188570000000     0.881800000000     0.032470000000    -0.0430357  
C638     C      0.210410000000     0.903620000000     0.036010000000    -0.0427874  
C639     C      0.227770000000     0.957440000000     0.536700000000    -0.0260586  
C640     C      0.203560000000     0.934910000000     0.037170000000     0.0137903  
C641     C      0.189310000000     0.998660000000     0.542620000000    -0.0267575  
C642     C      0.174310000000     0.944320000000     0.034960000000    -0.00620995 
C643     C      0.158860000000     0.696790000000     0.015390000000     0.0148238  
C644     C      0.197200000000     0.679600000000     0.982910000000    -0.0407948  
C645     C      0.250100000000     0.682750000000     0.997070000000    -0.0237175  
C646     C      0.218320000000     0.688060000000     0.003260000000     0.0202695  
C647     C      0.261430000000     0.702210000000     0.546730000000    -0.0259366  
C648     C      0.229500000000     0.709030000000     0.552150000000     0.0158718  
C649     C      0.167730000000     0.683420000000     0.989120000000    -0.0428524  
C650     C      0.208310000000     0.701480000000     0.530940000000    -0.00645662 
C651     C      0.220620000000     0.722030000000     0.578500000000    -0.0433376  
C652     C      0.191170000000     0.727560000000     0.583950000000    -0.043418   
C653     C      0.138210000000     0.726520000000     0.569910000000    -0.0256457  
C654     C      0.169870000000     0.719830000000     0.563370000000     0.0120438  
C655     C      0.126960000000     0.698760000000     0.022540000000    -0.0259542  
C656     C      0.178360000000     0.706010000000     0.536990000000    -0.00644945 
C657     C      0.417180000000     0.596930000000     0.880620000000     0.0140079  
C658     C      0.375900000000     0.076250000000     0.887740000000    -0.0429687  
C659     C      0.369360000000     0.044020000000     0.932520000000    -0.0256908  
C660     C      0.386930000000     0.066070000000     0.914460000000     0.0139206  
C661     C      0.408330000000     0.046890000000     0.971220000000    -0.0259663  
C662     C      0.425950000000     0.066350000000     0.950710000000     0.0150738  
C663     C      0.388120000000     0.590760000000     0.873500000000    -0.0431693  
C664     C      0.414760000000     0.075630000000     0.923580000000    -0.00551348 
C665     C      0.454140000000     0.075140000000     0.958880000000    -0.041425   
C666     C      0.466880000000     0.587610000000     0.943960000000    -0.042802   
C667     C      0.477750000000     0.608870000000     0.894670000000    -0.0249255  
C668     C      0.456920000000     0.594940000000     0.916110000000     0.0157874  
C669     C      0.436720000000     0.612540000000     0.858730000000    -0.0250218  
C670     C      0.427630000000     0.589340000000     0.908560000000    -0.00599845 
C671     C      0.225460000000     0.043120000000     0.892590000000     0.0135278  
C672     C      0.195780000000     0.014300000000     0.858360000000    -0.0417261  
C673     C      0.144760000000     0.029850000000     0.844740000000    -0.0245968  
C674     C      0.172180000000     0.034280000000     0.862620000000     0.0116162  
C675     C      0.121220000000     0.069450000000     0.878250000000    -0.0259746  
C676     C      0.151180000000     0.077600000000     0.888780000000     0.0142118  
C677     C      0.221900000000     0.018370000000     0.873480000000    -0.0434357  
C678     C      0.175060000000     0.058620000000     0.882460000000    -0.0057324  
C679     C      0.154840000000     0.103000000000     0.907100000000    -0.0431599  
C680     C      0.181980000000     0.109580000000     0.919050000000    -0.042288   
C681     C      0.226800000000     0.599250000000     0.935120000000    -0.0262523  
C682     C      0.205710000000     0.090150000000     0.913950000000     0.0166195  
C683     C      0.248290000000     0.549300000000     0.918710000000    -0.0258354  
C684     C      0.202220000000     0.064010000000     0.896330000000    -0.00673274 
C685     C      0.147790000000     0.609400000000     0.691370000000     0.0136845  
C686     C      0.201230000000     0.094630000000     0.682710000000    -0.042157   
C687     C      0.220740000000     0.085450000000     0.632990000000    -0.0244439  
C688     C      0.195430000000     0.090560000000     0.653080000000     0.0128481  
C689     C      0.183650000000     0.078960000000     0.591910000000    -0.0232882  
C690     C      0.160140000000     0.086220000000     0.613570000000     0.0127662  
C691     C      0.176020000000     0.617210000000     0.700340000000    -0.0430303  
C692     C      0.166460000000     0.090710000000     0.643130000000    -0.00463427 
C693     C      0.131110000000     0.086810000000     0.604100000000    -0.0417593  
C694     C      0.104780000000     0.607560000000     0.623000000000    -0.0421795  
C695     C      0.087660000000     0.599050000000     0.674160000000    -0.024794   
C696     C      0.111620000000     0.605630000000     0.652640000000     0.0143083  
C697     C      0.126250000000     0.599400000000     0.714100000000    -0.0256482  
C698     C      0.140250000000     0.611700000000     0.661860000000    -0.00570922 
C699     C      0.406850000000     0.018980000000     0.722230000000     0.0183304  
C700     C      0.390840000000     0.996600000000     0.676850000000    -0.0432595  
C701     C      0.354070000000     0.021740000000     0.644640000000    -0.0255771  
C702     C      0.372090000000     0.021460000000     0.671930000000     0.014027   
C703     C      0.319680000000     0.572250000000     0.671880000000    -0.0246971  
C704     C      0.342980000000     0.570340000000     0.695070000000     0.0140135  
C705     C      0.407880000000     0.995270000000     0.701820000000    -0.0430004  
C706     C      0.362460000000     0.545300000000     0.696300000000    -0.0055029  
C707     C      0.345100000000     0.593720000000     0.715860000000    -0.0423822  
C708     C      0.366420000000     0.592670000000     0.737420000000    -0.0425836  
C709     C      0.409190000000     0.567690000000     0.762230000000    -0.0250554  
C710     C      0.386260000000     0.568260000000     0.738670000000     0.014624   
C711     C      0.424680000000     0.016820000000     0.749550000000    -0.0251153  
C712     C      0.384300000000     0.544330000000     0.718110000000    -0.00592647 
C713     C      0.086030000000     0.696530000000     0.851320000000     0.0155526  
C714     C      0.108250000000     0.719080000000     0.894080000000    -0.0422804  
C715     C      0.090840000000     0.769110000000     0.914820000000    -0.0243514  
C716     C      0.088740000000     0.743720000000     0.892870000000     0.0165727  
C717     C      0.555940000000     0.792270000000     0.897730000000    -0.0253894  
C718     C      0.555590000000     0.765770000000     0.876450000000     0.0149615  
C719     C      0.106860000000     0.695690000000     0.873550000000    -0.0431875  
C720     C      0.573650000000     0.739800000000     0.880710000000    -0.00690025 
C721     C      0.536930000000     0.766730000000     0.852430000000    -0.0429284  
C722     C      0.535830000000     0.742250000000     0.832970000000    -0.0421795  
C723     C      0.551850000000     0.690290000000     0.815620000000    -0.0247973  
C724     C      0.552920000000     0.715990000000     0.837400000000     0.0139999  
C725     C      0.586230000000     0.660020000000     0.847680000000    -0.0252304  
C726     C      0.571700000000     0.714460000000     0.861510000000    -0.00527542 
C727     C      0.031700000000     0.933160000000     0.936610000000     0.0156005  
C728     C      0.066950000000     0.950520000000     0.900910000000    -0.0422084  
C729     C      0.050900000000     0.965020000000     0.850100000000    -0.0233279  
C730     C      0.044480000000     0.955600000000     0.880830000000     0.0155195  
C731     C      0.497870000000     0.979060000000     0.846280000000    -0.0263585  
C732     C      0.492430000000     0.958570000000     0.872180000000     0.0141425  
C733     C      0.060470000000     0.940500000000     0.929010000000    -0.0424671  
C734     C      0.015430000000     0.950540000000     0.889110000000    -0.00752631 
C735     C      0.463880000000     0.949490000000     0.878800000000    -0.0429969  
C736     C      0.458150000000     0.932220000000     0.903710000000    -0.0432588  
C737     C      0.474290000000     0.905180000000     0.949320000000    -0.025789   
C738     C      0.480530000000     0.925490000000     0.923420000000     0.0144076  
C739     C      0.023810000000     0.924120000000     0.967080000000    -0.0252474  
C740     C      0.508880000000     0.936330000000     0.917860000000    -0.00581988 
C741     C      0.053730000000     0.868550000000     0.669810000000     0.0144823  
C742     C      0.080280000000     0.896610000000     0.707100000000    -0.0424018  
C743     C      0.058200000000     0.940450000000     0.735260000000    -0.024499   
C744     C      0.056140000000     0.915540000000     0.712290000000     0.013356   
C745     C      0.503940000000     0.952590000000     0.727780000000    -0.0258481  
C746     C      0.504290000000     0.929820000000     0.703340000000     0.0151702  
C747     C      0.079020000000     0.873290000000     0.686320000000    -0.0426011  
C748     C      0.030300000000     0.910620000000     0.696350000000    -0.00581025 
C749     C      0.479190000000     0.925970000000     0.686440000000    -0.0425547  
C750     C      0.478260000000     0.903910000000     0.664660000000    -0.042476   
C751     C      0.499970000000     0.860910000000     0.636080000000    -0.0247209  
C752     C      0.502270000000     0.884890000000     0.659470000000     0.0138237  
C753     C      0.052500000000     0.842180000000     0.648450000000    -0.0251854  
C754     C      0.029200000000     0.887250000000     0.674780000000    -0.00584229 
C755     C      0.483660000000     0.687540000000     0.600590000000     0.0181751  
C756     C      0.493650000000     0.635620000000     0.616370000000    -0.0415618  
C757     C      0.509680000000     0.623140000000     0.666860000000    -0.0225228  
C758     C      0.499050000000     0.645870000000     0.644730000000     0.0124499  
C759     C      0.955280000000     0.650470000000     0.696430000000    -0.0252616  
C760     C      0.964750000000     0.672860000000     0.673440000000     0.0158034  
C761     C      0.485830000000     0.656190000000     0.594610000000    -0.0450967  
C762     C      0.974320000000     0.662270000000     0.646120000000    -0.00754896 
C763     C      0.963730000000     0.704410000000     0.679060000000    -0.0433093  
C764     C      0.972800000000     0.725360000000     0.658110000000    -0.0421553  
C765     C      0.993930000000     0.738700000000     0.609660000000    -0.0216246  
C766     C      0.982430000000     0.715290000000     0.630840000000     0.0121938  
C767     C      0.475930000000     0.709780000000     0.576750000000    -0.0274244  
C768     C      0.488750000000     0.698290000000     0.629100000000    -0.00793102 
C769     C      0.986180000000     0.108460000000     0.213840000000     0.399264   
C770     C      0.601560000000     0.545850000000     0.337160000000     0.395283   
C771     C      0.044430000000     0.146020000000     0.306170000000     0.400032   
C772     C      0.586940000000     0.566210000000     0.223920000000     0.396182   
C773     C      0.542490000000     0.486780000000     0.244590000000     0.390388   
C774     C      0.986540000000     0.110640000000     0.339570000000     0.400395   
C775     C      0.958590000000     0.056650000000     0.260290000000     0.389883   
C776     C      0.542410000000     0.497950000000     0.322400000000     0.395795   
C777     C      0.523210000000     0.246410000000     0.063500000000     0.390635   
C778     C      0.957830000000     0.329220000000     0.530120000000     0.38858    
C779     C      0.534340000000     0.337230000000     0.099140000000     0.391757   
C780     C      0.986640000000     0.243910000000     0.476960000000     0.400374   
C781     C      0.045920000000     0.286540000000     0.443530000000     0.401956   
C782     C      0.585130000000     0.362410000000     0.038540000000     0.397071   
C783     C      0.600000000000     0.248630000000     0.034410000000     0.395628   
C784     C      0.001670000000     0.377180000000     0.481210000000     0.388935   
C785     C      0.834340000000     0.056420000000     0.110530000000     0.393177   
C786     C      0.736240000000     0.516720000000     0.534910000000     0.398351   
C787     C      0.736410000000     0.084770000000     0.082800000000     0.395306   
C788     C      0.831820000000     0.489440000000     0.539730000000     0.392665   
C789     C      0.851920000000     0.557770000000     0.492450000000     0.386846   
C790     C      0.771080000000     0.140150000000     0.031300000000     0.391532   
C791     C      0.861300000000     0.109700000000     0.058340000000     0.393615   
C792     C      0.757080000000     0.570300000000     0.469990000000     0.390594   
C793     C      0.885410000000     0.355290000000     0.522430000000     0.0148556  
C794     C      0.847890000000     0.387260000000     0.500830000000    -0.0429703  
C795     C      0.828900000000     0.434530000000     0.025590000000    -0.0237345  
C796     C      0.849570000000     0.407990000000     0.524080000000     0.0131324  
C797     C      0.852230000000     0.450460000000     0.073330000000    -0.0251267  
C798     C      0.870890000000     0.422360000000     0.570820000000     0.0138759  
C799     C      0.865710000000     0.361340000000     0.499930000000    -0.043548   
C800     C      0.868880000000     0.402010000000     0.547160000000    -0.00543728 
C801     C      0.889480000000     0.415490000000     0.594090000000    -0.04268    
C802     C      0.906500000000     0.389080000000     0.593780000000    -0.0418723  
C803     C      0.923610000000     0.340350000000     0.570270000000    -0.0250505  
C804     C      0.905360000000     0.368990000000     0.570130000000     0.0165854  
C805     C      0.904470000000     0.326980000000     0.521100000000    -0.0259855  
C806     C      0.886580000000     0.375300000000     0.546580000000    -0.00671661 
C807     C      0.959050000000     0.172110000000     0.490840000000     0.0169159  
C808     C      0.955640000000     0.127530000000     0.022760000000    -0.0450422  
C809     C      0.914170000000     0.121370000000     0.057800000000    -0.02588    
C810     C      0.929790000000     0.139200000000     0.034530000000     0.0159502  
C811     C      0.877580000000     0.163810000000     0.061110000000    -0.0264475  
C812     C      0.893070000000     0.180070000000     0.036680000000     0.0149998  
C813     C      0.969780000000     0.144180000000     0.501310000000    -0.0432948  
C814     C      0.918760000000     0.167580000000     0.024650000000    -0.00746976 
C815     C      0.882100000000     0.207890000000     0.026030000000    -0.0436498  
C816     C      0.895150000000     0.223540000000     0.502660000000    -0.0426792  
C817     C      0.936060000000     0.228130000000     0.466350000000    -0.0260011  
C818     C      0.920800000000     0.211550000000     0.490730000000     0.0158074  
C819     C      0.975500000000     0.189080000000     0.467500000000    -0.0248218  
C820     C      0.932510000000     0.183900000000     0.501760000000    -0.00739705 
C821     C      0.666410000000     0.479790000000     0.048750000000     0.0162606  
C822     C      0.614790000000     0.467060000000     0.534350000000    -0.0418811  
C823     C      0.599120000000     0.413850000000     0.521030000000    -0.0242588  
C824     C      0.622150000000     0.436150000000     0.530420000000     0.0144593  
C825     C      0.636090000000     0.370900000000     0.526920000000    -0.025091   
C826     C      0.658760000000     0.395450000000     0.531390000000     0.0137153  
C827     C      0.637250000000     0.488770000000     0.046000000000    -0.0421786  
C828     C      0.651210000000     0.426660000000     0.533870000000    -0.00545215 
C829     C      0.688030000000     0.386700000000     0.533640000000    -0.042879   
C830     C      0.709650000000     0.408540000000     0.538340000000    -0.0429397  
C831     C      0.727670000000     0.462500000000     0.050930000000    -0.0254468  
C832     C      0.702480000000     0.439620000000     0.541250000000     0.0143525  
C833     C      0.688770000000     0.502770000000     0.058440000000    -0.0259053  
C834     C      0.673080000000     0.448740000000     0.539900000000    -0.0060618  
C835     C      0.659860000000     0.200740000000     0.511270000000     0.015168   
C836     C      0.698210000000     0.180890000000     0.480190000000    -0.0411904  
C837     C      0.750260000000     0.178070000000     0.496990000000    -0.0238921  
C838     C      0.718860000000     0.186360000000     0.501900000000     0.0175909  
C839     C      0.763850000000     0.193970000000     0.046970000000    -0.0256291  
C840     C      0.732520000000     0.204450000000     0.050460000000     0.0150837  
C841     C      0.668920000000     0.187430000000     0.485040000000    -0.0431275  
C842     C      0.711970000000     0.199720000000     0.027960000000    -0.00644897 
C843     C      0.723540000000     0.218420000000     0.076330000000    -0.0423893  
C844     C      0.694610000000     0.227430000000     0.080080000000    -0.0422391  
C845     C      0.642860000000     0.232910000000     0.063160000000    -0.0257252  
C846     C      0.673830000000     0.222310000000     0.058250000000     0.0136625  
C847     C      0.627880000000     0.204770000000     0.517080000000    -0.0260115  
C848     C      0.682350000000     0.207830000000     0.032270000000    -0.00528062 
C849     C      0.920270000000     0.106650000000     0.376850000000     0.0147971  
C850     C      0.871210000000     0.587910000000     0.392840000000    -0.0430353  
C851     C      0.862810000000     0.561080000000     0.440290000000    -0.0254377  
C852     C      0.881960000000     0.579390000000     0.420200000000     0.0135137  
C853     C      0.902890000000     0.565740000000     0.478790000000    -0.0262654  
C854     C      0.921890000000     0.578810000000     0.455220000000     0.0144956  
C855     C      0.892070000000     0.097630000000     0.369050000000    -0.042998   
C856     C      0.910930000000     0.586220000000     0.427570000000    -0.0057718  
C857     C      0.951260000000     0.584330000000     0.461600000000    -0.0418958  
C858     C      0.971620000000     0.096430000000     0.438810000000    -0.0417437  
C859     C      0.979570000000     0.123690000000     0.391490000000    -0.021722   
C860     C      0.960580000000     0.105480000000     0.411820000000     0.0154608  
C861     C      0.937800000000     0.126870000000     0.356810000000    -0.0255945  
C862     C      0.931910000000     0.097280000000     0.403850000000    -0.0057687  
C863     C      0.727160000000     0.548970000000     0.400060000000     0.0139132  
C864     C      0.702810000000     0.517920000000     0.363500000000    -0.042768   
C865     C      0.650140000000     0.525360000000     0.349950000000    -0.0247814  
C866     C      0.676380000000     0.533180000000     0.368540000000     0.011972   
C867     C      0.620620000000     0.557200000000     0.385830000000    -0.0259299  
C868     C      0.648650000000     0.570350000000     0.396920000000     0.014384   
C869     C      0.727780000000     0.525400000000     0.379370000000    -0.0433116  
C870     C      0.675230000000     0.556330000000     0.389820000000    -0.00592089 
C871     C      0.648140000000     0.595150000000     0.416320000000    -0.0434499  
C872     C      0.673820000000     0.605780000000     0.428860000000    -0.0428585  
C873     C      0.736140000000     0.097450000000     0.426900000000    -0.0252099  
C874     C      0.700220000000     0.590750000000     0.423420000000     0.0170579  
C875     C      0.755400000000     0.046950000000     0.409340000000    -0.0253397  
C876     C      0.701010000000     0.565480000000     0.404370000000    -0.00688771 
C877     C      0.651620000000     0.095530000000     0.193920000000     0.0161418  
C878     C      0.703080000000     0.622090000000     0.183190000000    -0.042831   
C879     C      0.717220000000     0.637790000000     0.132610000000    -0.0248262  
C880     C      0.695450000000     0.625200000000     0.153910000000     0.0147181  
C881     C      0.681350000000     0.628610000000     0.092400000000    -0.0257798  
C882     C      0.659280000000     0.619660000000     0.115180000000     0.0143778  
C883     C      0.680610000000     0.095030000000     0.203260000000    -0.0433106  
C884     C      0.667100000000     0.617410000000     0.144750000000    -0.00655962 
C885     C      0.630550000000     0.613560000000     0.106790000000    -0.0431826  
C886     C      0.610030000000     0.089230000000     0.124790000000    -0.0426464  
C887     C      0.591200000000     0.098130000000     0.175320000000    -0.0253363  
C888     C      0.616010000000     0.093060000000     0.154380000000     0.0155895  
C889     C      0.627890000000     0.101040000000     0.215740000000    -0.0257838  
C890     C      0.645130000000     0.092100000000     0.164180000000    -0.00675561 
C891     C      0.903690000000     0.516060000000     0.222210000000     0.0166518  
C892     C      0.882630000000     0.494840000000     0.178350000000    -0.0421823  
C893     C      0.841180000000     0.520160000000     0.152310000000    -0.0251095  
C894     C      0.863160000000     0.519530000000     0.176470000000     0.0146691  
C895     C      0.830520000000     0.066910000000     0.163020000000    -0.0244063  
C896     C      0.850580000000     0.065750000000     0.188940000000     0.0130535  
C897     C      0.902670000000     0.493110000000     0.200970000000    -0.0424219  
C898     C      0.870440000000     0.041450000000     0.192690000000    -0.00527376 
C899     C      0.848620000000     0.088720000000     0.210190000000    -0.0427796  
C900     C      0.866270000000     0.087910000000     0.234840000000    -0.0434116  
C901     C      0.905240000000     0.063490000000     0.265790000000    -0.0253944  
C902     C      0.886120000000     0.063930000000     0.238990000000     0.0153176  
C903     C      0.924900000000     0.513250000000     0.247010000000    -0.0251458  
C904     C      0.888040000000     0.040290000000     0.218020000000    -0.00708725 
C905     C      0.586770000000     0.201690000000     0.350930000000     0.0151087  
C906     C      0.608460000000     0.225280000000     0.393470000000    -0.0423257  
C907     C      0.589900000000     0.275140000000     0.413620000000    -0.0242564  
C908     C      0.588320000000     0.249340000000     0.392080000000     0.017068   
C909     C      0.042740000000     0.296970000000     0.390550000000    -0.0250415  
C910     C      0.043720000000     0.272610000000     0.367120000000     0.0144113  
C911     C      0.607580000000     0.201610000000     0.373190000000    -0.0427125  
C912     C      0.064920000000     0.249070000000     0.367760000000    -0.00616285 
C913     C      0.023260000000     0.273240000000     0.344560000000    -0.0428097  
C914     C      0.023380000000     0.250680000000     0.323060000000    -0.0425501  
C915     C      0.043380000000     0.202540000000     0.300330000000    -0.0247849  
C916     C      0.043750000000     0.226730000000     0.323800000000     0.0143736  
C917     C      0.085620000000     0.176810000000     0.325030000000    -0.0256702  
C918     C      0.064640000000     0.225770000000     0.346260000000    -0.00596806 
C919     C      0.530950000000     0.433630000000     0.437070000000     0.0161168  
C920     C      0.568860000000     0.445610000000     0.402080000000    -0.041662   
C921     C      0.557090000000     0.451750000000     0.348660000000    -0.0231873  
C922     C      0.548140000000     0.446540000000     0.379710000000     0.0153949  
C923     C      0.998620000000     0.472500000000     0.338740000000    -0.0240099  
C924     C      0.992600000000     0.454570000000     0.366160000000     0.0162343  
C925     C      0.560180000000     0.440200000000     0.430720000000    -0.0420851  
C926     C      0.518480000000     0.442000000000     0.386240000000    -0.00458929 
C927     C      0.963920000000     0.446080000000     0.372840000000    -0.0425217  
C928     C      0.957620000000     0.431000000000     0.398830000000    -0.0434724  
C929     C      0.972530000000     0.408090000000     0.446760000000    -0.0266357  
C930     C      0.979580000000     0.425750000000     0.419390000000     0.0176952  
C931     C      0.520880000000     0.428860000000     0.467810000000    -0.0254281  
C932     C      0.008160000000     0.435800000000     0.413560000000    -0.00833729 
C933     C      0.553640000000     0.363400000000     0.172170000000     0.0146455  
C934     C      0.580920000000     0.389250000000     0.210290000000    -0.0422399  
C935     C      0.560400000000     0.433360000000     0.239130000000    -0.0242062  
C936     C      0.557460000000     0.409010000000     0.215780000000     0.0132719  
C937     C      0.006580000000     0.449720000000     0.227120000000    -0.0302396  
C938     C      0.006540000000     0.426680000000     0.202900000000     0.0138512  
C939     C      0.578940000000     0.366580000000     0.188970000000    -0.0424841  
C940     C      0.531540000000     0.405570000000     0.199610000000    -0.00568159 
C941     C      0.980810000000     0.421720000000     0.187230000000    -0.0407941  
C942     C      0.979730000000     0.399660000000     0.165450000000    -0.0408423  
C943     C      0.001940000000     0.357940000000     0.135480000000    -0.0296345  
C944     C      0.004230000000     0.381770000000     0.159030000000     0.0129654  
C945     C      0.551610000000     0.337780000000     0.150120000000    -0.0251679  
C946     C      0.529770000000     0.382960000000     0.177410000000    -0.00573171 
C947     C      0.992350000000     0.175240000000     0.095050000000     0.0140063  
C948     C      0.985820000000     0.122510000000     0.110830000000    -0.0448863  
C949     C      0.971350000000     0.108970000000     0.161930000000    -0.0260907  
C950     C      0.978140000000     0.132420000000     0.138740000000     0.0153168  
C951     C      0.460360000000     0.154430000000     0.196830000000    -0.0251824  
C952     C      0.469280000000     0.176780000000     0.173630000000     0.0153349  
C953     C      0.992490000000     0.143680000000     0.089160000000    -0.0425856  
C954     C      0.477250000000     0.166210000000     0.145830000000    -0.00644526 
C955     C      0.468880000000     0.208310000000     0.179420000000    -0.0429881  
C956     C      0.476920000000     0.229260000000     0.158070000000    -0.0432111  
C957     C      0.494710000000     0.242670000000     0.108380000000    -0.0264555  
C958     C      0.484770000000     0.219220000000     0.130240000000     0.0138516  
C959     C      0.996890000000     0.197720000000     0.070690000000    -0.0216712  
C960     C      0.985220000000     0.185590000000     0.123060000000    -0.00505168 
C961     C      0.985570000000     0.108980000000     0.714110000000     0.399011   
C962     C      0.600490000000     0.546280000000     0.837280000000     0.394839   
C963     C      0.044300000000     0.146500000000     0.806160000000     0.399977   
C964     C      0.585930000000     0.566260000000     0.724110000000     0.396063   
C965     C      0.541370000000     0.487070000000     0.744610000000     0.390032   
C966     C      0.986430000000     0.111160000000     0.839820000000     0.400461   
C967     C      0.958190000000     0.057240000000     0.760620000000     0.389915   
C968     C      0.541370000000     0.498280000000     0.822890000000     0.395335   
C969     C      0.521960000000     0.246890000000     0.563310000000     0.39096    
C970     C      0.959120000000     0.329800000000     0.030440000000     0.388675   
C971     C      0.533400000000     0.338070000000     0.598160000000     0.391652   
C972     C      0.987840000000     0.243940000000     0.977740000000     0.400405   
C973     C      0.046890000000     0.286710000000     0.943720000000     0.401454   
C974     C      0.583970000000     0.362200000000     0.536100000000     0.397409   
C975     C      0.598300000000     0.248170000000     0.534690000000     0.396283   
C976     C      0.003110000000     0.377220000000     0.981710000000     0.388875   
C977     C      0.834060000000     0.057020000000     0.610780000000     0.393236   
C978     C      0.736780000000     0.516610000000     0.038280000000     0.399249   
C979     C      0.736070000000     0.084620000000     0.583150000000     0.39524    
C980     C      0.831160000000     0.488870000000     0.040530000000     0.393381   
C981     C      0.851500000000     0.556790000000     0.992660000000     0.386519   
C982     C      0.769920000000     0.140170000000     0.531670000000     0.3913     
C983     C      0.860720000000     0.110470000000     0.558550000000     0.393712   
C984     C      0.756400000000     0.569390000000     0.970600000000     0.390568   
C985     C      0.886320000000     0.355610000000     0.022840000000     0.0147769  
C986     C      0.848340000000     0.387070000000     0.001400000000    -0.0424698  
C987     C      0.829180000000     0.435160000000     0.524850000000    -0.0244788  
C988     C      0.849510000000     0.407530000000     0.024890000000     0.0126096  
C989     C      0.852640000000     0.450950000000     0.572440000000    -0.0260908  
C990     C      0.870690000000     0.422040000000     0.071650000000     0.0133875  
C991     C      0.866570000000     0.361480000000     0.000340000000    -0.0434522  
C992     C      0.869050000000     0.401870000000     0.047840000000    -0.00513815 
C993     C      0.889630000000     0.415530000000     0.094730000000    -0.0423573  
C994     C      0.907100000000     0.389460000000     0.094240000000    -0.0420715  
C995     C      0.924870000000     0.341110000000     0.070540000000    -0.0250597  
C996     C      0.906180000000     0.369420000000     0.070530000000     0.0165354  
C997     C      0.905760000000     0.327580000000     0.021370000000    -0.0256684  
C998     C      0.887220000000     0.375500000000     0.047080000000    -0.00682969 
C999     C      0.960120000000     0.171900000000     0.991370000000     0.0149762  
C1000    C      0.954750000000     0.128130000000     0.522730000000    -0.0444036  
C1001    C      0.913510000000     0.122450000000     0.558110000000    -0.0257548  
C1002    C      0.928960000000     0.139930000000     0.534500000000     0.0155248  
C1003    C      0.876710000000     0.164710000000     0.560900000000    -0.0262698  
C1004    C      0.892140000000     0.180730000000     0.536290000000     0.0144687  
C1005    C      0.970780000000     0.143830000000     0.001580000000    -0.0419759  
C1006    C      0.917830000000     0.168150000000     0.524320000000    -0.00681078 
C1007    C      0.881110000000     0.208420000000     0.525380000000    -0.0431234  
C1008    C      0.896220000000     0.223240000000     0.003500000000    -0.0416776  
C1009    C      0.937210000000     0.228170000000     0.967330000000    -0.0254664  
C1010    C      0.921900000000     0.211360000000     0.991530000000     0.0145715  
C1011    C      0.976680000000     0.189110000000     0.968270000000    -0.021729   
C1012    C      0.933550000000     0.183580000000     0.002320000000    -0.00604315 
C1013    C      0.665250000000     0.479630000000     0.544180000000     0.0160604  
C1014    C      0.616040000000     0.467520000000     0.038190000000    -0.0417804  
C1015    C      0.600220000000     0.414370000000     0.024700000000    -0.024312   
C1016    C      0.623320000000     0.436600000000     0.034140000000     0.0144764  
C1017    C      0.637170000000     0.371420000000     0.029670000000    -0.0253157  
C1018    C      0.659850000000     0.395790000000     0.034930000000     0.0138901  
C1019    C      0.636010000000     0.488450000000     0.541770000000    -0.0422643  
C1020    C      0.652330000000     0.426980000000     0.037740000000    -0.00531545 
C1021    C      0.689100000000     0.386940000000     0.037270000000    -0.0429142  
C1022    C      0.710710000000     0.408640000000     0.042520000000    -0.0427615  
C1023    C      0.726600000000     0.462510000000     0.546000000000    -0.0261321  
C1024    C      0.703550000000     0.439660000000     0.045940000000     0.0142501  
C1025    C      0.687650000000     0.502860000000     0.553210000000    -0.025832   
C1026    C      0.674190000000     0.448910000000     0.044250000000    -0.00609714 
C1027    C      0.661700000000     0.201180000000     0.010580000000     0.0150298  
C1028    C      0.700000000000     0.180910000000     0.979660000000    -0.0415717  
C1029    C      0.752070000000     0.178270000000     0.996480000000    -0.0242096  
C1030    C      0.720640000000     0.186410000000     0.001370000000     0.0184391  
C1031    C      0.762030000000     0.193850000000     0.547540000000    -0.0255352  
C1032    C      0.730700000000     0.204280000000     0.551040000000     0.01492    
C1033    C      0.670740000000     0.187640000000     0.984440000000    -0.0431395  
C1034    C      0.710160000000     0.199560000000     0.528530000000    -0.00612983 
C1035    C      0.721690000000     0.218140000000     0.576960000000    -0.0422704  
C1036    C      0.692730000000     0.227050000000     0.580740000000    -0.0423175  
C1037    C      0.640960000000     0.232440000000     0.563840000000    -0.025775   
C1038    C      0.671960000000     0.221900000000     0.558920000000     0.0136841  
C1039    C      0.629730000000     0.205720000000     0.016160000000    -0.0256992  
C1040    C      0.680520000000     0.207520000000     0.532900000000    -0.00556267 
C1041    C      0.920300000000     0.106800000000     0.877090000000     0.0148213  
C1042    C      0.870520000000     0.586410000000     0.892910000000    -0.0430585  
C1043    C      0.862310000000     0.559630000000     0.940430000000    -0.025457   
C1044    C      0.881350000000     0.578000000000     0.920270000000     0.0135032  
C1045    C      0.902490000000     0.564270000000     0.978760000000    -0.0263073  
C1046    C      0.921310000000     0.577780000000     0.955260000000     0.0145066  
C1047    C      0.892140000000     0.097700000000     0.869220000000    -0.0429799  
C1048    C      0.910270000000     0.585110000000     0.927630000000    -0.00577852 
C1049    C      0.950610000000     0.583670000000     0.961660000000    -0.0418452  
C1050    C      0.971720000000     0.096310000000     0.938950000000    -0.0415343  
C1051    C      0.979540000000     0.123980000000     0.891810000000    -0.02165    
C1052    C      0.960640000000     0.105530000000     0.912030000000     0.0154419  
C1053    C      0.937730000000     0.127290000000     0.857210000000    -0.0255886  
C1054    C      0.932000000000     0.097260000000     0.904010000000    -0.0057267  
C1055    C      0.726020000000     0.547950000000     0.900670000000     0.0137533  
C1056    C      0.701420000000     0.517250000000     0.864010000000    -0.042781   
C1057    C      0.648970000000     0.525580000000     0.850100000000    -0.0248479  
C1058    C      0.675190000000     0.532970000000     0.868860000000     0.011939   
C1059    C      0.619700000000     0.557970000000     0.885800000000    -0.0258457  
C1060    C      0.647880000000     0.570670000000     0.897000000000     0.0142928  
C1061    C      0.726400000000     0.524330000000     0.880020000000    -0.0433652  
C1062    C      0.674270000000     0.556170000000     0.890090000000    -0.00595926 
C1063    C      0.647630000000     0.595510000000     0.916340000000    -0.043387   
C1064    C      0.673400000000     0.605720000000     0.929020000000    -0.0429514  
C1065    C      0.736470000000     0.097760000000     0.926640000000    -0.0251922  
C1066    C      0.699590000000     0.590230000000     0.923780000000     0.0169295  
C1067    C      0.755680000000     0.047300000000     0.908980000000    -0.0252288  
C1068    C      0.700110000000     0.564910000000     0.904790000000    -0.00689267 
C1069    C      0.651600000000     0.095150000000     0.694510000000     0.016099   
C1070    C      0.702520000000     0.621040000000     0.683330000000    -0.0428276  
C1071    C      0.716830000000     0.636470000000     0.632740000000    -0.0248877  
C1072    C      0.694960000000     0.624080000000     0.654030000000     0.0146573  
C1073    C      0.680990000000     0.627210000000     0.592460000000    -0.0258254  
C1074    C      0.658820000000     0.618630000000     0.615270000000     0.0142353  
C1075    C      0.680610000000     0.094490000000     0.703780000000    -0.0433455  
C1076    C      0.666570000000     0.616460000000     0.644860000000    -0.00649352 
C1077    C      0.630040000000     0.612760000000     0.606880000000    -0.0431057  
C1078    C      0.609850000000     0.089300000000     0.625440000000    -0.042575   
C1079    C      0.591160000000     0.098150000000     0.676030000000    -0.0253684  
C1080    C      0.615900000000     0.093000000000     0.655030000000     0.0155507  
C1081    C      0.627940000000     0.100680000000     0.716400000000    -0.0257417  
C1082    C      0.645040000000     0.091860000000     0.664760000000    -0.00673733 
C1083    C      0.903210000000     0.515940000000     0.722130000000     0.0167336  
C1084    C      0.882420000000     0.494830000000     0.678100000000    -0.0422206  
C1085    C      0.841100000000     0.520170000000     0.651890000000    -0.0251456  
C1086    C      0.862920000000     0.519490000000     0.676190000000     0.0146861  
C1087    C      0.830270000000     0.067610000000     0.663250000000    -0.0244118  
C1088    C      0.850310000000     0.066450000000     0.689190000000     0.0130387  
C1089    C      0.902330000000     0.493060000000     0.700830000000    -0.0423639  
C1090    C      0.870130000000     0.042130000000     0.692980000000    -0.00528572 
C1091    C      0.848350000000     0.089450000000     0.710420000000    -0.0428191  
C1092    C      0.865970000000     0.088630000000     0.735090000000    -0.0433908  
C1093    C      0.904840000000     0.064170000000     0.766130000000    -0.025529   
C1094    C      0.885770000000     0.064620000000     0.739300000000     0.0153425  
C1095    C      0.924300000000     0.513100000000     0.747030000000    -0.0252797  
C1096    C      0.887690000000     0.040960000000     0.718340000000    -0.00711104 
C1097    C      0.586720000000     0.201990000000     0.851820000000     0.015002   
C1098    C      0.608880000000     0.225920000000     0.893950000000    -0.042301   
C1099    C      0.590590000000     0.276020000000     0.913850000000    -0.0241774  
C1100    C      0.588780000000     0.250010000000     0.892560000000     0.0171434  
C1101    C      0.043320000000     0.297250000000     0.890780000000    -0.0250604  
C1102    C      0.044130000000     0.272940000000     0.867290000000     0.0144148  
C1103    C      0.607750000000     0.202070000000     0.873890000000    -0.0426478  
C1104    C      0.065330000000     0.249400000000     0.867730000000    -0.00613885 
C1105    C      0.023510000000     0.273640000000     0.844870000000    -0.0427937  
C1106    C      0.023470000000     0.251130000000     0.823330000000    -0.042536   
C1107    C      0.043290000000     0.203030000000     0.800360000000    -0.0248474  
C1108    C      0.043830000000     0.227170000000     0.823880000000     0.0144084  
C1109    C      0.085680000000     0.177210000000     0.824730000000    -0.025746   
C1110    C      0.064880000000     0.226140000000     0.846190000000    -0.00598318 
C1111    C      0.531860000000     0.433550000000     0.937610000000     0.0161095  
C1112    C      0.569120000000     0.445380000000     0.901890000000    -0.0416554  
C1113    C      0.556290000000     0.451890000000     0.848760000000    -0.0232309  
C1114    C      0.547950000000     0.446600000000     0.879960000000     0.0153544  
C1115    C      0.998300000000     0.472850000000     0.839430000000    -0.0241514  
C1116    C      0.992640000000     0.454910000000     0.866920000000     0.0162738  
C1117    C      0.561000000000     0.439880000000     0.930680000000    -0.0421763  
C1118    C      0.518400000000     0.442280000000     0.887090000000    -0.00461615 
C1119    C      0.964040000000     0.446550000000     0.874040000000    -0.0424909  
C1120    C      0.958080000000     0.431440000000     0.900100000000    -0.043524   
C1121    C      0.973650000000     0.408330000000     0.947720000000    -0.0265695  
C1122    C      0.980340000000     0.426040000000     0.920290000000     0.017683   
C1123    C      0.522410000000     0.428710000000     0.968540000000    -0.0253812  
C1124    C      0.008880000000     0.435960000000     0.914040000000    -0.00835642 
C1125    C      0.552770000000     0.364370000000     0.671280000000     0.0146088  
C1126    C      0.579980000000     0.389910000000     0.709650000000    -0.0422915  
C1127    C      0.559360000000     0.433710000000     0.738840000000    -0.024282   
C1128    C      0.556490000000     0.409580000000     0.715270000000     0.0133234  
C1129    C      0.005840000000     0.449890000000     0.727170000000    -0.0303466  
C1130    C      0.005760000000     0.427040000000     0.702790000000     0.013949   
C1131    C      0.578050000000     0.367420000000     0.688140000000    -0.0425234  
C1132    C      0.530600000000     0.406260000000     0.699030000000    -0.00570085 
C1133    C      0.980010000000     0.422180000000     0.687150000000    -0.0407685  
C1134    C      0.978890000000     0.400280000000     0.665230000000    -0.0408881  
C1135    C      0.001030000000     0.358790000000     0.634940000000    -0.0297711  
C1136    C      0.003380000000     0.382440000000     0.658650000000     0.0129273  
C1137    C      0.550790000000     0.338880000000     0.649090000000    -0.0251167  
C1138    C      0.528890000000     0.383860000000     0.676630000000    -0.00575773 
C1139    C      0.990950000000     0.175560000000     0.595200000000     0.0140005  
C1140    C      0.984700000000     0.122850000000     0.611140000000    -0.0449106  
C1141    C      0.970430000000     0.109400000000     0.662310000000    -0.0261537  
C1142    C      0.977090000000     0.132810000000     0.639040000000     0.0154031  
C1143    C      0.461020000000     0.155500000000     0.697760000000    -0.0252644  
C1144    C      0.469540000000     0.177730000000     0.674320000000     0.0152699  
C1145    C      0.991210000000     0.143990000000     0.589390000000    -0.0426329  
C1146    C      0.477140000000     0.167060000000     0.646450000000    -0.00643825 
C1147    C      0.469110000000     0.209290000000     0.679970000000    -0.043012   
C1148    C      0.476740000000     0.230170000000     0.658410000000    -0.0431886  
C1149    C      0.493680000000     0.243420000000     0.608370000000    -0.026349   
C1150    C      0.484230000000     0.220030000000     0.630520000000     0.0138579  
C1151    C      0.995290000000     0.197990000000     0.570760000000    -0.0215838  
C1152    C      0.983920000000     0.185970000000     0.623200000000    -0.00507231 
C1153    C      0.985800000000     0.606970000000     0.214680000000     0.39947    
C1154    C      0.599600000000     0.054540000000     0.333170000000     0.392091   
C1155    C      0.044930000000     0.642170000000     0.308720000000     0.399808   
C1156    C      0.580980000000     0.074420000000     0.223100000000     0.403432   
C1157    C      0.538350000000     0.992690000000     0.242910000000     0.387742   
C1158    C      0.985480000000     0.606590000000     0.340080000000     0.399061   
C1159    C      0.958690000000     0.555630000000     0.259590000000     0.389703   
C1160    C      0.537400000000     0.011150000000     0.325900000000     0.393293   
C1161    C      0.511260000000     0.751140000000     0.065880000000     0.396417   
C1162    C      0.959220000000     0.823750000000     0.531270000000     0.388691   
C1163    C      0.533030000000     0.837710000000     0.100040000000     0.392964   
C1164    C      0.987040000000     0.741360000000     0.479090000000     0.398557   
C1165    C      0.048900000000     0.783160000000     0.445880000000     0.402573   
C1166    C      0.583960000000     0.856770000000     0.037300000000     0.397045   
C1167    C      0.594530000000     0.741550000000     0.042490000000     0.396181   
C1168    C      0.003380000000     0.874270000000     0.482030000000     0.390548   
C1169    C      0.826020000000     0.561260000000     0.118730000000     0.396025   
C1170    C      0.738960000000     0.009060000000     0.523640000000     0.395722   
C1171    C      0.733120000000     0.613290000000     0.086810000000     0.397409   
C1172    C      0.833460000000     0.980870000000     0.534110000000     0.393544   
C1173    C      0.857050000000     0.046160000000     0.484700000000     0.391055   
C1174    C      0.769080000000     0.648180000000     0.035570000000     0.389726   
C1175    C      0.859610000000     0.616560000000     0.067640000000     0.394662   
C1176    C      0.761980000000     0.063060000000     0.460930000000     0.39018    
C1177    C      0.886560000000     0.846400000000     0.522700000000     0.0149498  
C1178    C      0.849200000000     0.877160000000     0.499370000000    -0.0429917  
C1179    C      0.828400000000     0.925300000000     0.021830000000    -0.0233663  
C1180    C      0.850280000000     0.898730000000     0.521960000000     0.0130006  
C1181    C      0.849310000000     0.942230000000     0.070110000000    -0.0251674  
C1182    C      0.870410000000     0.914840000000     0.568750000000     0.0141513  
C1183    C      0.867210000000     0.851380000000     0.499670000000    -0.0434184  
C1184    C      0.869100000000     0.893710000000     0.545670000000    -0.0054656  
C1185    C      0.888640000000     0.909020000000     0.592560000000    -0.0426934  
C1186    C      0.906090000000     0.882940000000     0.593290000000    -0.0419119  
C1187    C      0.924600000000     0.833950000000     0.571320000000    -0.0249402  
C1188    C      0.905640000000     0.862060000000     0.570230000000     0.0164235  
C1189    C      0.906020000000     0.818390000000     0.522630000000    -0.0258116  
C1190    C      0.887100000000     0.867240000000     0.546230000000    -0.00673808 
C1191    C      0.957710000000     0.671260000000     0.495970000000     0.017109   
C1192    C      0.952830000000     0.628400000000     0.029550000000    -0.0456275  
C1193    C      0.912850000000     0.626150000000     0.066720000000    -0.025898   
C1194    C      0.928070000000     0.641890000000     0.041870000000     0.0161054  
C1195    C      0.877910000000     0.670040000000     0.069230000000    -0.0266349  
C1196    C      0.893050000000     0.684430000000     0.043540000000     0.0153515  
C1197    C      0.967580000000     0.643330000000     0.507240000000    -0.0439052  
C1198    C      0.917750000000     0.670220000000     0.031120000000    -0.00784747 
C1199    C      0.882740000000     0.712140000000     0.032010000000    -0.0437864  
C1200    C      0.896100000000     0.725830000000     0.507240000000    -0.0422895  
C1201    C      0.936000000000     0.726750000000     0.469530000000    -0.0258695  
C1202    C      0.920890000000     0.712160000000     0.495110000000     0.0161304  
C1203    C      0.974300000000     0.686550000000     0.471690000000    -0.0252001  
C1204    C      0.931910000000     0.684630000000     0.507060000000    -0.00752281 
C1205    C      0.667180000000     0.973200000000     0.032880000000     0.0153548  
C1206    C      0.616560000000     0.960360000000     0.526690000000    -0.0419866  
C1207    C      0.600070000000     0.906420000000     0.518030000000    -0.0244339  
C1208    C      0.623490000000     0.929100000000     0.525190000000     0.0141926  
C1209    C      0.636440000000     0.863540000000     0.527740000000    -0.0249005  
C1210    C      0.659560000000     0.888090000000     0.528960000000     0.0134119  
C1211    C      0.638080000000     0.982280000000     0.029780000000    -0.0434752  
C1212    C      0.652470000000     0.919520000000     0.528790000000    -0.00567364 
C1213    C      0.688790000000     0.879160000000     0.531060000000    -0.0430807  
C1214    C      0.710800000000     0.901050000000     0.533020000000    -0.0430404  
C1215    C      0.728380000000     0.955320000000     0.033930000000    -0.0250512  
C1216    C      0.704060000000     0.932390000000     0.533470000000     0.0135219  
C1217    C      0.689770000000     0.996700000000     0.040490000000    -0.0257083  
C1218    C      0.674740000000     0.941750000000     0.532290000000    -0.0061572  
C1219    C      0.654350000000     0.694500000000     0.521380000000     0.0148487  
C1220    C      0.692520000000     0.678860000000     0.488020000000    -0.040627   
C1221    C      0.745620000000     0.683820000000     0.501050000000    -0.0233825  
C1222    C      0.713820000000     0.687810000000     0.508040000000     0.0193792  
C1223    C      0.760010000000     0.701920000000     0.049420000000    -0.0259253  
C1224    C      0.727960000000     0.708220000000     0.054990000000     0.0154712  
C1225    C      0.663060000000     0.681660000000     0.494840000000    -0.0430887  
C1226    C      0.706700000000     0.700350000000     0.033940000000    -0.00663046 
C1227    C      0.719070000000     0.721330000000     0.081300000000    -0.0434753  
C1228    C      0.689610000000     0.726770000000     0.086800000000    -0.0436651  
C1229    C      0.636600000000     0.725600000000     0.072860000000    -0.0257055  
C1230    C      0.668260000000     0.718830000000     0.066320000000     0.0121404  
C1231    C      0.622580000000     0.695370000000     0.529310000000    -0.0259362  
C1232    C      0.676720000000     0.704790000000     0.040050000000    -0.00670076 
C1233    C      0.918280000000     0.608760000000     0.379310000000     0.0142037  
C1234    C      0.875810000000     0.078740000000     0.387310000000    -0.0430906  
C1235    C      0.869700000000     0.047360000000     0.432650000000    -0.0258664  
C1236    C      0.887050000000     0.069180000000     0.414150000000     0.014054   
C1237    C      0.908750000000     0.051800000000     0.471400000000    -0.0262683  
C1238    C      0.926300000000     0.070350000000     0.450080000000     0.0151038  
C1239    C      0.889020000000     0.602850000000     0.372810000000    -0.0432777  
C1240    C      0.914950000000     0.078910000000     0.422830000000    -0.00568187 
C1241    C      0.954620000000     0.079160000000     0.457760000000    -0.0414802  
C1242    C      0.969580000000     0.597600000000     0.441090000000    -0.0425513  
C1243    C      0.979280000000     0.619980000000     0.391910000000    -0.0222411  
C1244    C      0.958950000000     0.605700000000     0.413670000000     0.0151179  
C1245    C      0.937330000000     0.624800000000     0.357290000000    -0.0251927  
C1246    C      0.929420000000     0.600460000000     0.406810000000    -0.00591509 
C1247    C      0.726890000000     0.043070000000     0.392900000000     0.0136597  
C1248    C      0.697240000000     0.014050000000     0.358790000000    -0.0417393  
C1249    C      0.645830000000     0.028850000000     0.345920000000    -0.0246772  
C1250    C      0.673410000000     0.033610000000     0.363470000000     0.0116664  
C1251    C      0.622140000000     0.067850000000     0.379870000000    -0.0258962  
C1252    C      0.652070000000     0.076370000000     0.390200000000     0.0142315  
C1253    C      0.723480000000     0.018430000000     0.373640000000    -0.0434347  
C1254    C      0.676160000000     0.057840000000     0.383450000000    -0.00568337 
C1255    C      0.655570000000     0.101670000000     0.408680000000    -0.043092   
C1256    C      0.682750000000     0.108590000000     0.420370000000    -0.0422316  
C1257    C      0.728060000000     0.602390000000     0.436410000000    -0.0260435  
C1258    C      0.706700000000     0.089590000000     0.414840000000     0.0167771  
C1259    C      0.754400000000     0.556320000000     0.417470000000    -0.0260427  
C1260    C      0.703390000000     0.063560000000     0.397050000000    -0.0067544  
C1261    C      0.654550000000     0.603500000000     0.194620000000     0.0131559  
C1262    C      0.703060000000     0.090350000000     0.183490000000    -0.0421213  
C1263    C      0.722180000000     0.080790000000     0.133660000000    -0.0245873  
C1264    C      0.697070000000     0.086370000000     0.153900000000     0.0130119  
C1265    C      0.684910000000     0.075000000000     0.092810000000    -0.0233407  
C1266    C      0.661560000000     0.082680000000     0.114510000000     0.0129782  
C1267    C      0.682940000000     0.611080000000     0.203240000000    -0.043023   
C1268    C      0.668070000000     0.087110000000     0.144040000000    -0.00461061 
C1269    C      0.632510000000     0.083840000000     0.105140000000    -0.0415957  
C1270    C      0.609790000000     0.605050000000     0.127340000000    -0.0421366  
C1271    C      0.594050000000     0.594390000000     0.178470000000    -0.0243054  
C1272    C      0.617440000000     0.601680000000     0.156670000000     0.0132402  
C1273    C      0.633740000000     0.591790000000     0.217330000000    -0.0254349  
C1274    C      0.646240000000     0.607370000000     0.165450000000    -0.00549578 
C1275    C      0.907510000000     0.015550000000     0.222020000000     0.0185383  
C1276    C      0.892060000000     0.993600000000     0.176260000000    -0.0431106  
C1277    C      0.855030000000     0.018600000000     0.144240000000    -0.025593   
C1278    C      0.872910000000     0.018180000000     0.171620000000     0.013983   
C1279    C      0.822300000000     0.570470000000     0.171730000000    -0.0247201  
C1280    C      0.844090000000     0.567680000000     0.196240000000     0.01328    
C1281    C      0.909030000000     0.992200000000     0.201270000000    -0.0428287  
C1282    C      0.863630000000     0.542720000000     0.197760000000    -0.00555067 
C1283    C      0.844630000000     0.590140000000     0.218030000000    -0.0428103  
C1284    C      0.864440000000     0.588240000000     0.240940000000    -0.0433063  
C1285    C      0.905590000000     0.562220000000     0.267540000000    -0.0254352  
C1286    C      0.884250000000     0.563870000000     0.242580000000     0.0153047  
C1287    C      0.925360000000     0.013400000000     0.249340000000    -0.0250448  
C1288    C      0.883900000000     0.540860000000     0.220970000000    -0.00668662 
C1289    C      0.590110000000     0.687030000000     0.367190000000     0.0136918  
C1290    C      0.611480000000     0.711330000000     0.409590000000    -0.042407   
C1291    C      0.597440000000     0.764780000000     0.424700000000    -0.0241627  
C1292    C      0.594550000000     0.737560000000     0.404940000000     0.0175343  
C1293    C      0.047720000000     0.793920000000     0.392880000000    -0.0250695  
C1294    C      0.048140000000     0.769310000000     0.369670000000     0.01447    
C1295    C      0.609110000000     0.686230000000     0.391030000000    -0.0429021  
C1296    C      0.068220000000     0.744740000000     0.371000000000    -0.00626033 
C1297    C      0.028260000000     0.770750000000     0.346630000000    -0.0428048  
C1298    C      0.027850000000     0.747990000000     0.325340000000    -0.0425118  
C1299    C      0.046180000000     0.698710000000     0.303460000000    -0.024731   
C1300    C      0.047070000000     0.723030000000     0.326770000000     0.0142549  
C1301    C      0.086460000000     0.670940000000     0.329520000000    -0.0258708  
C1302    C      0.067340000000     0.721230000000     0.349730000000    -0.00597243 
C1303    C      0.531460000000     0.932970000000     0.437970000000     0.0152626  
C1304    C      0.567010000000     0.950700000000     0.402730000000    -0.0421107  
C1305    C      0.551550000000     0.964390000000     0.351540000000    -0.0230697  
C1306    C      0.544770000000     0.955360000000     0.382300000000     0.0153138  
C1307    C      0.997730000000     0.979210000000     0.344460000000    -0.0258028  
C1308    C      0.992330000000     0.958830000000     0.370480000000     0.0163017  
C1309    C      0.560240000000     0.940710000000     0.430770000000    -0.0422102  
C1310    C      0.515680000000     0.950000000000     0.390180000000    -0.00570976 
C1311    C      0.963780000000     0.949980000000     0.377330000000    -0.0432068  
C1312    C      0.958120000000     0.932710000000     0.402260000000    -0.0434087  
C1313    C      0.974430000000     0.905370000000     0.447660000000    -0.0251688  
C1314    C      0.980610000000     0.925710000000     0.421760000000     0.0165683  
C1315    C      0.523250000000     0.923660000000     0.468280000000    -0.0245461  
C1316    C      0.009000000000     0.936260000000     0.415950000000    -0.00792382 
C1317    C      0.551980000000     0.867860000000     0.172220000000     0.0141638  
C1318    C      0.578490000000     0.894980000000     0.210130000000    -0.0424716  
C1319    C      0.557150000000     0.939540000000     0.237810000000    -0.0244843  
C1320    C      0.554800000000     0.914660000000     0.214840000000     0.0133056  
C1321    C      0.005560000000     0.951390000000     0.225810000000    -0.0305491  
C1322    C      0.005840000000     0.927870000000     0.201980000000     0.0137025  
C1323    C      0.577010000000     0.871740000000     0.189300000000    -0.0425592  
C1324    C      0.529180000000     0.910580000000     0.198340000000    -0.00584491 
C1325    C      0.980320000000     0.922710000000     0.186050000000    -0.0409215  
C1326    C      0.979420000000     0.900260000000     0.164630000000    -0.0408721  
C1327    C      0.001770000000     0.857830000000     0.135740000000    -0.0296291  
C1328    C      0.003930000000     0.882180000000     0.158810000000     0.0130016  
C1329    C      0.550460000000     0.841540000000     0.150840000000    -0.0249614  
C1330    C      0.527910000000     0.887350000000     0.176660000000    -0.00570435 
C1331    C      0.991160000000     0.673140000000     0.096470000000     0.0141986  
C1332    C      0.985920000000     0.620420000000     0.112580000000    -0.0451741  
C1333    C      0.969870000000     0.607030000000     0.163170000000    -0.0259709  
C1334    C      0.977090000000     0.630380000000     0.140100000000     0.0153381  
C1335    C      0.510070000000     0.666430000000     0.203440000000    -0.024402   
C1336    C      0.501830000000     0.687380000000     0.178980000000     0.0126775  
C1337    C      0.992670000000     0.641570000000     0.090940000000    -0.0428652  
C1338    C      0.496780000000     0.676440000000     0.150720000000    -0.00405756 
C1339    C      0.499720000000     0.718880000000     0.184830000000    -0.0420985  
C1340    C      0.492850000000     0.739570000000     0.162910000000    -0.0428343  
C1341    C      0.481730000000     0.751990000000     0.110910000000    -0.0249398  
C1342    C      0.487850000000     0.729180000000     0.134650000000     0.0170198  
C1343    C      0.995240000000     0.695520000000     0.072020000000    -0.0216361  
C1344    C      0.983180000000     0.683580000000     0.124210000000    -0.00533496 
C1345    C      0.984890000000     0.607110000000     0.714810000000     0.39973    
C1346    C      0.599460000000     0.054600000000     0.833750000000     0.391948   
C1347    C      0.044070000000     0.642410000000     0.808600000000     0.399972   
C1348    C      0.580860000000     0.074420000000     0.723780000000     0.403284   
C1349    C      0.537940000000     0.992980000000     0.743400000000     0.387822   
C1350    C      0.984620000000     0.606390000000     0.840150000000     0.398983   
C1351    C      0.957970000000     0.555570000000     0.759660000000     0.389443   
C1352    C      0.537130000000     0.011210000000     0.826600000000     0.393274   
C1353    C      0.510860000000     0.751750000000     0.566460000000     0.396778   
C1354    C      0.959650000000     0.824650000000     0.031340000000     0.388732   
C1355    C      0.532980000000     0.838410000000     0.599770000000     0.393064   
C1356    C      0.987320000000     0.741470000000     0.979520000000     0.398706   
C1357    C      0.048880000000     0.783400000000     0.945660000000     0.402153   
C1358    C      0.584100000000     0.856590000000     0.536900000000     0.397125   
C1359    C      0.593670000000     0.740850000000     0.543780000000     0.396608   
C1360    C      0.004020000000     0.874400000000     0.982120000000     0.390048   
C1361    C      0.825900000000     0.561350000000     0.618410000000     0.39571    
C1362    C      0.738970000000     0.009270000000     0.023230000000     0.395697   
C1363    C      0.732870000000     0.612400000000     0.586800000000     0.396764   
C1364    C      0.832140000000     0.980260000000     0.034580000000     0.393726   
C1365    C      0.857310000000     0.045550000000     0.984480000000     0.390804   
C1366    C      0.768390000000     0.648410000000     0.535900000000     0.390063   
C1367    C      0.859320000000     0.617140000000     0.567420000000     0.394232   
C1368    C      0.762320000000     0.063290000000     0.960590000000     0.390267   
C1369    C      0.886490000000     0.846910000000     0.022960000000     0.0153306  
C1370    C      0.848470000000     0.876930000000     0.999830000000    -0.0427827  
C1371    C      0.830020000000     0.926030000000     0.521220000000    -0.0243465  
C1372    C      0.848930000000     0.898240000000     0.022650000000     0.0126465  
C1373    C      0.851630000000     0.943070000000     0.569160000000    -0.0262476  
C1374    C      0.868780000000     0.914530000000     0.069520000000     0.0138057  
C1375    C      0.867020000000     0.851590000000     0.999970000000    -0.0438592  
C1376    C      0.868020000000     0.893620000000     0.046230000000    -0.00514248 
C1377    C      0.887490000000     0.909270000000     0.093060000000    -0.0423129  
C1378    C      0.905630000000     0.883700000000     0.093530000000    -0.0421673  
C1379    C      0.925080000000     0.835230000000     0.071370000000    -0.0251845  
C1380    C      0.905500000000     0.862880000000     0.070420000000     0.0164773  
C1381    C      0.906430000000     0.819280000000     0.022750000000    -0.0260067  
C1382    C      0.886680000000     0.867650000000     0.046570000000    -0.00696524 
C1383    C      0.957990000000     0.671120000000     0.996260000000     0.016014   
C1384    C      0.952520000000     0.628900000000     0.529660000000    -0.0452988  
C1385    C      0.912490000000     0.627040000000     0.566800000000    -0.0258364  
C1386    C      0.927700000000     0.642480000000     0.541790000000     0.0157994  
C1387    C      0.877300000000     0.670740000000     0.568630000000    -0.0264571  
C1388    C      0.892560000000     0.684930000000     0.542890000000     0.0148912  
C1389    C      0.967850000000     0.643050000000     0.007220000000    -0.0430681  
C1390    C      0.917360000000     0.670650000000     0.530710000000    -0.0073853  
C1391    C      0.882250000000     0.712510000000     0.531070000000    -0.0434056  
C1392    C      0.896490000000     0.725660000000     0.008230000000    -0.0414344  
C1393    C      0.936200000000     0.726840000000     0.970320000000    -0.02566    
C1394    C      0.921210000000     0.712060000000     0.995870000000     0.0151589  
C1395    C      0.974560000000     0.686650000000     0.972080000000    -0.0248324  
C1396    C      0.932250000000     0.684420000000     0.007550000000    -0.00655976 
C1397    C      0.667370000000     0.972980000000     0.534350000000     0.0153835  
C1398    C      0.616430000000     0.960580000000     0.024820000000    -0.0420486  
C1399    C      0.599680000000     0.906400000000     0.017960000000    -0.0241321  
C1400    C      0.623240000000     0.929250000000     0.024250000000     0.0139523  
C1401    C      0.636090000000     0.863720000000     0.027460000000    -0.0250893  
C1402    C      0.659230000000     0.888220000000     0.028990000000     0.0136425  
C1403    C      0.638190000000     0.982010000000     0.531930000000    -0.043492   
C1404    C      0.652190000000     0.919670000000     0.028230000000    -0.00553533 
C1405    C      0.688420000000     0.879280000000     0.031500000000    -0.0431828  
C1406    C      0.710440000000     0.901170000000     0.033310000000    -0.0428789  
C1407    C      0.728630000000     0.955250000000     0.535100000000    -0.0259145  
C1408    C      0.703740000000     0.932520000000     0.033240000000     0.0131267  
C1409    C      0.690110000000     0.996450000000     0.541630000000    -0.0259142  
C1410    C      0.674480000000     0.941920000000     0.031510000000    -0.0061473  
C1411    C      0.655620000000     0.695050000000     0.019840000000     0.0149039  
C1412    C      0.693900000000     0.678670000000     0.986910000000    -0.0407991  
C1413    C      0.746940000000     0.683490000000     0.000240000000    -0.0225553  
C1414    C      0.715120000000     0.687560000000     0.007020000000     0.0197171  
C1415    C      0.758830000000     0.701960000000     0.550360000000    -0.0259978  
C1416    C      0.726800000000     0.708120000000     0.556100000000     0.0154492  
C1417    C      0.664430000000     0.681870000000     0.993470000000    -0.0433115  
C1418    C      0.705480000000     0.700310000000     0.535100000000    -0.00664559 
C1419    C      0.717990000000     0.721000000000     0.582540000000    -0.043527   
C1420    C      0.688530000000     0.726220000000     0.588240000000    -0.0436263  
C1421    C      0.635440000000     0.724750000000     0.574600000000    -0.0258498  
C1422    C      0.667120000000     0.718230000000     0.567860000000     0.0122229  
C1423    C      0.623750000000     0.696570000000     0.027330000000    -0.0261378  
C1424    C      0.675520000000     0.704420000000     0.541450000000    -0.00684829 
C1425    C      0.917390000000     0.607760000000     0.879390000000     0.0141574  
C1426    C      0.875980000000     0.078550000000     0.887330000000    -0.0431427  
C1427    C      0.870050000000     0.046760000000     0.932440000000    -0.0259688  
C1428    C      0.887280000000     0.068830000000     0.914100000000     0.0141393  
C1429    C      0.909060000000     0.051070000000     0.971210000000    -0.0263515  
C1430    C      0.926530000000     0.069900000000     0.950040000000     0.0151275  
C1431    C      0.888190000000     0.601530000000     0.872880000000    -0.0432045  
C1432    C      0.915130000000     0.078640000000     0.922850000000    -0.00572439 
C1433    C      0.954810000000     0.078810000000     0.957780000000    -0.0414953  
C1434    C      0.968790000000     0.597180000000     0.941160000000    -0.0424498  
C1435    C      0.978280000000     0.619660000000     0.891990000000    -0.0222456  
C1436    C      0.958090000000     0.605150000000     0.913740000000     0.0151589  
C1437    C      0.936280000000     0.624030000000     0.857380000000    -0.0251077  
C1438    C      0.928610000000     0.599570000000     0.906880000000    -0.00587467 
C1439    C      0.727070000000     0.043340000000     0.892740000000     0.0135913  
C1440    C      0.697230000000     0.014210000000     0.858890000000    -0.0417585  
C1441    C      0.645710000000     0.028890000000     0.846360000000    -0.0246472  
C1442    C      0.673410000000     0.033730000000     0.863700000000     0.0116778  
C1443    C      0.622200000000     0.067960000000     0.880350000000    -0.0259186  
C1444    C      0.652190000000     0.076520000000     0.890490000000     0.0142462  
C1445    C      0.723560000000     0.018660000000     0.873550000000    -0.0433912  
C1446    C      0.676250000000     0.058010000000     0.883620000000    -0.00570778 
C1447    C      0.655770000000     0.101850000000     0.908910000000    -0.0431049  
C1448    C      0.683020000000     0.108830000000     0.920420000000    -0.0422684  
C1449    C      0.727520000000     0.601450000000     0.936890000000    -0.0260273  
C1450    C      0.706960000000     0.089860000000     0.914760000000     0.01675    
C1451    C      0.753270000000     0.554850000000     0.918240000000    -0.0259526  
C1452    C      0.703570000000     0.063800000000     0.897030000000    -0.00674702 
C1453    C      0.653840000000     0.602910000000     0.694780000000     0.0132066  
C1454    C      0.703000000000     0.089790000000     0.683950000000    -0.0421451  
C1455    C      0.721980000000     0.080430000000     0.634030000000    -0.0246173  
C1456    C      0.696930000000     0.085960000000     0.654350000000     0.0129983  
C1457    C      0.684600000000     0.074790000000     0.593270000000    -0.0232248  
C1458    C      0.661310000000     0.082530000000     0.615030000000     0.0129573  
C1459    C      0.682280000000     0.610290000000     0.703400000000    -0.043042   
C1460    C      0.667910000000     0.086840000000     0.644560000000    -0.00462133 
C1461    C      0.632260000000     0.083850000000     0.605730000000    -0.0416335  
C1462    C      0.609180000000     0.604550000000     0.627440000000    -0.0422288  
C1463    C      0.593290000000     0.594290000000     0.678610000000    -0.0243071  
C1464    C      0.616760000000     0.601250000000     0.656790000000     0.0133142  
C1465    C      0.632910000000     0.591490000000     0.717520000000    -0.0255315  
C1466    C      0.645610000000     0.606710000000     0.665580000000    -0.00553267 
C1467    C      0.907120000000     0.016190000000     0.722400000000     0.0186009  
C1468    C      0.891720000000     0.994240000000     0.676610000000    -0.043187   
C1469    C      0.854770000000     0.019270000000     0.644520000000    -0.0255487  
C1470    C      0.872600000000     0.018840000000     0.671930000000     0.0139719  
C1471    C      0.821960000000     0.570330000000     0.671420000000    -0.0246702  
C1472    C      0.843650000000     0.567520000000     0.696010000000     0.0132675  
C1473    C      0.908640000000     0.992820000000     0.701660000000    -0.042823   
C1474    C      0.863230000000     0.542610000000     0.697560000000    -0.00554183 
C1475    C      0.844050000000     0.589920000000     0.717860000000    -0.0427618  
C1476    C      0.863750000000     0.588010000000     0.740860000000    -0.0433133  
C1477    C      0.904840000000     0.562000000000     0.767570000000    -0.0254974  
C1478    C      0.883600000000     0.563670000000     0.742530000000     0.0153359  
C1479    C      0.924890000000     0.014020000000     0.749750000000    -0.0250908  
C1480    C      0.883390000000     0.540710000000     0.720860000000    -0.00670584 
C1481    C      0.588570000000     0.687990000000     0.866770000000     0.0135889  
C1482    C      0.610630000000     0.712700000000     0.908600000000    -0.0424276  
C1483    C      0.596630000000     0.766200000000     0.923610000000    -0.0240645  
C1484    C      0.593510000000     0.738830000000     0.904080000000     0.0176377  
C1485    C      0.047190000000     0.794190000000     0.892680000000    -0.0251135  
C1486    C      0.047470000000     0.769590000000     0.869470000000     0.0144947  
C1487    C      0.608000000000     0.687450000000     0.890260000000    -0.0427857  
C1488    C      0.067640000000     0.745080000000     0.870620000000    -0.00627407 
C1489    C      0.027380000000     0.770960000000     0.846610000000    -0.0428059  
C1490    C      0.026840000000     0.748190000000     0.825330000000    -0.0425293  
C1491    C      0.045100000000     0.698960000000     0.803300000000    -0.0247727  
C1492    C      0.046140000000     0.723300000000     0.826590000000     0.0142594  
C1493    C      0.085690000000     0.671320000000     0.829010000000    -0.0258105  
C1494    C      0.066630000000     0.721560000000     0.849370000000    -0.00593663 
C1495    C      0.530900000000     0.933390000000     0.938830000000     0.0152499  
C1496    C      0.566550000000     0.951080000000     0.903680000000    -0.0421025  
C1497    C      0.551280000000     0.964540000000     0.852380000000    -0.0231969  
C1498    C      0.544390000000     0.955610000000     0.883140000000     0.0153408  
C1499    C      0.997570000000     0.979840000000     0.844850000000    -0.0258293  
C1500    C      0.992340000000     0.959390000000     0.870840000000     0.0162821  
C1501    C      0.559690000000     0.941180000000     0.931730000000    -0.0422818  
C1502    C      0.515270000000     0.950220000000     0.890930000000    -0.00569746 
C1503    C      0.963820000000     0.950650000000     0.877940000000    -0.0431983  
C1504    C      0.958330000000     0.933290000000     0.902850000000    -0.0434152  
C1505    C      0.974970000000     0.905650000000     0.947970000000    -0.0251416  
C1506    C      0.980980000000     0.926100000000     0.922110000000     0.0165076  
C1507    C      0.522590000000     0.924130000000     0.969130000000    -0.0245816  
C1508    C      0.009360000000     0.936540000000     0.916060000000    -0.00794649 
C1509    C      0.551620000000     0.868560000000     0.672120000000     0.0140901  
C1510    C      0.577960000000     0.895300000000     0.710390000000    -0.0424637  
C1511    C      0.556600000000     0.939780000000     0.738160000000    -0.0243974  
C1512    C      0.554320000000     0.915060000000     0.715040000000     0.0132742  
C1513    C      0.005100000000     0.951950000000     0.725710000000    -0.0306698  
C1514    C      0.005390000000     0.928490000000     0.701840000000     0.0137391  
C1515    C      0.576530000000     0.872200000000     0.689420000000    -0.0425637  
C1516    C      0.528800000000     0.911200000000     0.698320000000    -0.00588814 
C1517    C      0.979880000000     0.923390000000     0.685870000000    -0.0408887  
C1518    C      0.978970000000     0.900970000000     0.664430000000    -0.0409517  
C1519    C      0.001280000000     0.858530000000     0.635520000000    -0.029768   
C1520    C      0.003460000000     0.882850000000     0.658620000000     0.01299    
C1521    C      0.550120000000     0.842340000000     0.650640000000    -0.024849   
C1522    C      0.527610000000     0.888130000000     0.676480000000    -0.00568698 
C1523    C      0.990390000000     0.673280000000     0.596700000000     0.0141572  
C1524    C      0.985190000000     0.620560000000     0.612810000000    -0.0452088  
C1525    C      0.968890000000     0.607180000000     0.663320000000    -0.0261317  
C1526    C      0.976230000000     0.630530000000     0.640290000000     0.0154699  
C1527    C      0.509310000000     0.666970000000     0.704080000000    -0.0243678  
C1528    C      0.501280000000     0.688060000000     0.679640000000     0.0126566  
C1529    C      0.992000000000     0.641710000000     0.591190000000    -0.0428533  
C1530    C      0.496220000000     0.677220000000     0.651350000000    -0.00404277 
C1531    C      0.499320000000     0.719550000000     0.685560000000    -0.0421413  
C1532    C      0.492590000000     0.740340000000     0.663660000000    -0.0428352  
C1533    C      0.481590000000     0.752960000000     0.611670000000    -0.0249086  
C1534    C      0.487530000000     0.730040000000     0.635380000000     0.0169549  
C1535    C      0.994430000000     0.695650000000     0.572240000000    -0.0215344  
C1536    C      0.982330000000     0.683720000000     0.624400000000    -0.00533342 
Co1      Co     0.520750000000     0.058130000000     0.241700000000     0.851822   
Co2      Co     0.038020000000     0.574810000000     0.317680000000     0.849598   
Co3      Co     0.503340000000     0.105280000000     0.278460000000     0.836535   
Co4      Co     0.068090000000     0.540580000000     0.276440000000     0.838727   
Co5      Co     0.043620000000     0.264060000000     0.004310000000     0.861427   
Co6      Co     0.521580000000     0.345080000000     0.535230000000     0.84427    
Co7      Co     0.061440000000     0.300490000000     0.050940000000     0.830632   
Co8      Co     0.503550000000     0.310920000000     0.487460000000     0.834489   
Co9      Co     0.337230000000     0.047960000000     0.046540000000     0.852975   
Co10     Co     0.252710000000     0.582050000000     0.532650000000     0.849825   
Co11     Co     0.298810000000     0.093190000000     0.066680000000     0.833603   
Co12     Co     0.290150000000     0.535830000000     0.514050000000     0.828179   
Co13     Co     0.520550000000     0.058480000000     0.742360000000     0.85179    
Co14     Co     0.037380000000     0.575050000000     0.817690000000     0.849295   
Co15     Co     0.503140000000     0.105450000000     0.779300000000     0.83642    
Co16     Co     0.067370000000     0.540810000000     0.776400000000     0.838283   
Co17     Co     0.042190000000     0.263930000000     0.504120000000     0.861088   
Co18     Co     0.522840000000     0.345050000000     0.036220000000     0.844691   
Co19     Co     0.060020000000     0.300520000000     0.550600000000     0.831015   
Co20     Co     0.504580000000     0.311020000000     0.988430000000     0.833427   
Co21     Co     0.337300000000     0.048930000000     0.546600000000     0.853276   
Co22     Co     0.252760000000     0.581660000000     0.033170000000     0.849902   
Co23     Co     0.298330000000     0.093580000000     0.566750000000     0.832906   
Co24     Co     0.289370000000     0.534520000000     0.014950000000     0.828099   
Co25     Co     0.526230000000     0.552510000000     0.243420000000     0.857652   
Co26     Co     0.039310000000     0.078890000000     0.317500000000     0.848025   
Co27     Co     0.508940000000     0.598530000000     0.281970000000     0.849473   
Co28     Co     0.066870000000     0.041720000000     0.276750000000     0.836957   
Co29     Co     0.043430000000     0.760830000000     0.006180000000     0.860747   
Co30     Co     0.521310000000     0.841070000000     0.536380000000     0.846963   
Co31     Co     0.060780000000     0.797510000000     0.052830000000     0.830892   
Co32     Co     0.505110000000     0.806090000000     0.488600000000     0.836422   
Co33     Co     0.330120000000     0.553050000000     0.055870000000     0.853357   
Co34     Co     0.259240000000     0.075520000000     0.523770000000     0.849783   
Co35     Co     0.293160000000     0.600380000000     0.074630000000     0.82585    
Co36     Co     0.296970000000     0.029990000000     0.504500000000     0.833828   
Co37     Co     0.525160000000     0.552790000000     0.743530000000     0.8567     
Co38     Co     0.039110000000     0.079390000000     0.817560000000     0.848227   
Co39     Co     0.507490000000     0.598480000000     0.782210000000     0.848397   
Co40     Co     0.066510000000     0.042210000000     0.776720000000     0.836795   
Co41     Co     0.042890000000     0.760670000000     0.506380000000     0.860561   
Co42     Co     0.521200000000     0.841060000000     0.036710000000     0.846906   
Co43     Co     0.060130000000     0.797480000000     0.552970000000     0.830615   
Co44     Co     0.504780000000     0.806320000000     0.988850000000     0.836063   
Co45     Co     0.330330000000     0.554190000000     0.555590000000     0.853511   
Co46     Co     0.259400000000     0.075500000000     0.023860000000     0.849447   
Co47     Co     0.292840000000     0.600990000000     0.574340000000     0.825067   
Co48     Co     0.296560000000     0.029390000000     0.004670000000     0.834609   
Co49     Co     0.019940000000     0.057590000000     0.240320000000     0.850132   
Co50     Co     0.541200000000     0.565560000000     0.322080000000     0.849413   
Co51     Co     0.001970000000     0.104630000000     0.276880000000     0.832707   
Co52     Co     0.573310000000     0.534520000000     0.279570000000     0.849047   
Co53     Co     0.543900000000     0.264840000000     0.005290000000     0.860779   
Co54     Co     0.020700000000     0.344400000000     0.534040000000     0.843075   
Co55     Co     0.561740000000     0.300520000000     0.052260000000     0.831739   
Co56     Co     0.002440000000     0.309570000000     0.486830000000     0.830702   
Co57     Co     0.838260000000     0.047200000000     0.046550000000     0.852806   
Co58     Co     0.755490000000     0.582010000000     0.533650000000     0.84978    
Co59     Co     0.799260000000     0.091470000000     0.067130000000     0.833631   
Co60     Co     0.793940000000     0.537450000000     0.513510000000     0.828519   
Co61     Co     0.019480000000     0.058110000000     0.740440000000     0.850348   
Co62     Co     0.540060000000     0.565910000000     0.822320000000     0.849113   
Co63     Co     0.001660000000     0.105170000000     0.777070000000     0.832472   
Co64     Co     0.572080000000     0.534750000000     0.779800000000     0.848106   
Co65     Co     0.542620000000     0.264730000000     0.504880000000     0.860234   
Co66     Co     0.022120000000     0.344460000000     0.034530000000     0.843216   
Co67     Co     0.560560000000     0.300780000000     0.551540000000     0.832063   
Co68     Co     0.003700000000     0.309660000000     0.987360000000     0.829672   
Co69     Co     0.838100000000     0.047780000000     0.546800000000     0.853506   
Co70     Co     0.755470000000     0.581940000000     0.034130000000     0.850307   
Co71     Co     0.798810000000     0.091800000000     0.567340000000     0.833278   
Co72     Co     0.793550000000     0.536930000000     0.014150000000     0.828584   
Co73     Co     0.020550000000     0.556220000000     0.240290000000     0.851984   
Co74     Co     0.540090000000     0.078540000000     0.319080000000     0.847195   
Co75     Co     0.002200000000     0.602890000000     0.277480000000     0.831698   
Co76     Co     0.567530000000     0.041560000000     0.278090000000     0.838627   
Co77     Co     0.540860000000     0.759570000000     0.009840000000     0.865241   
Co78     Co     0.021570000000     0.841480000000     0.535170000000     0.84196    
Co79     Co     0.558930000000     0.797060000000     0.055500000000     0.833663   
Co80     Co     0.004340000000     0.806660000000     0.487750000000     0.831678   
Co81     Co     0.834260000000     0.555350000000     0.055220000000     0.853778   
Co82     Co     0.759770000000     0.073730000000     0.524330000000     0.849424   
Co83     Co     0.796390000000     0.601540000000     0.074770000000     0.824911   
Co84     Co     0.797810000000     0.028660000000     0.504680000000     0.834118   
Co85     Co     0.019810000000     0.556410000000     0.740300000000     0.85158    
Co86     Co     0.539890000000     0.078590000000     0.819850000000     0.847475   
Co87     Co     0.001360000000     0.602930000000     0.777560000000     0.831211   
Co88     Co     0.567220000000     0.041640000000     0.778770000000     0.838481   
Co89     Co     0.540630000000     0.759300000000     0.510350000000     0.8651     
Co90     Co     0.022200000000     0.841630000000     0.035260000000     0.841977   
Co91     Co     0.558850000000     0.797160000000     0.555690000000     0.833731   
Co92     Co     0.004650000000     0.806820000000     0.987940000000     0.831032   
Co93     Co     0.834380000000     0.555780000000     0.554900000000     0.853246   
Co94     Co     0.760120000000     0.073820000000     0.024010000000     0.8493     
Co95     Co     0.796200000000     0.601620000000     0.574520000000     0.824754   
Co96     Co     0.797910000000     0.028560000000     0.004310000000     0.834947   
H1       H      0.361680000000     0.468250000000     0.582660000000     0.0554415  
H2       H      0.412040000000     0.323970000000     0.497850000000     0.053844   
H3       H      0.304240000000     0.422880000000     0.033720000000     0.0416673  
H4       H      0.411410000000     0.322930000000     0.580630000000     0.0371653  
H5       H      0.364800000000     0.346200000000     0.480970000000     0.0381713  
H6       H      0.332040000000     0.390410000000     0.482760000000     0.0384938  
H7       H      0.324460000000     0.442930000000     0.502360000000     0.0518402  
H8       H      0.392760000000     0.307850000000     0.528230000000     0.0385413  
H9       H      0.387350000000     0.430040000000     0.613350000000     0.0369337  
H10      H      0.329190000000     0.441760000000     0.089770000000     0.0399054  
H11      H      0.418920000000     0.384960000000     0.612370000000     0.0363     
H12      H      0.443600000000     0.345580000000     0.583580000000     0.0523882  
H13      H      0.354300000000     0.170260000000     0.060000000000     0.0544769  
H14      H      0.469060000000     0.181440000000     0.445460000000     0.0393216  
H15      H      0.424830000000     0.126240000000     0.076620000000     0.0420013  
H16      H      0.431500000000     0.255140000000     0.466820000000     0.0540464  
H17      H      0.489860000000     0.136180000000     0.491650000000     0.0381304  
H18      H      0.464060000000     0.106390000000     0.027700000000     0.036654   
H19      H      0.416530000000     0.096570000000     0.051340000000     0.0546237  
H20      H      0.499580000000     0.187080000000     0.469240000000     0.0537203  
H21      H      0.362960000000     0.218880000000     0.035000000000     0.0382873  
H22      H      0.387170000000     0.172770000000     0.080770000000     0.0422717  
H23      H      0.386590000000     0.246720000000     0.494430000000     0.0377642  
H24      H      0.428100000000     0.221130000000     0.445270000000     0.0408044  
H25      H      0.139150000000     0.351630000000     0.540900000000     0.0533895  
H26      H      0.183040000000     0.505920000000     0.085360000000     0.0446292  
H27      H      0.097740000000     0.414420000000     0.495320000000     0.0405994  
H28      H      0.242380000000     0.457980000000     0.539760000000     0.0546239  
H29      H      0.126720000000     0.513600000000     0.048960000000     0.0403402  
H30      H      0.089860000000     0.474760000000     0.529140000000     0.0394041  
H31      H      0.076980000000     0.422200000000     0.030860000000     0.0549816  
H32      H      0.177100000000     0.526980000000     0.545880000000     0.0543206  
H33      H      0.192580000000     0.364100000000     0.535670000000     0.0389102  
H34      H      0.138670000000     0.363470000000     0.503960000000     0.0424455  
H35      H      0.229430000000     0.402820000000     0.546670000000     0.038009   
H36      H      0.227440000000     0.463020000000     0.082780000000     0.0410679  
H37      H      0.273730000000     0.188390000000     0.066290000000     0.0525105  
H38      H      0.119950000000     0.183240000000     0.526090000000     0.0446072  
H39      H      0.261410000000     0.200370000000     0.486780000000     0.0372573  
H40      H      0.143590000000     0.257720000000     0.070300000000     0.0528962  
H41      H      0.153260000000     0.181970000000     0.467490000000     0.0377519  
H42      H      0.204880000000     0.171670000000     0.458570000000     0.0362835  
H43      H      0.253010000000     0.161150000000     0.479040000000     0.0505159  
H44      H      0.116270000000     0.208290000000     0.495410000000     0.0535121  
H45      H      0.239750000000     0.224500000000     0.091700000000     0.0391939  
H46      H      0.277340000000     0.215860000000     0.037620000000     0.038364   
H47      H      0.189000000000     0.240160000000     0.098430000000     0.0392805  
H48      H      0.133800000000     0.219480000000     0.079240000000     0.0446985  
H49      H      0.403140000000     0.573860000000     0.500400000000     0.0558577  
H50      H      0.433840000000     0.150790000000     0.364050000000     0.041663   
H51      H      0.361410000000     0.530640000000     0.435240000000     0.046109   
H52      H      0.503290000000     0.116130000000     0.395630000000     0.0545646  
H53      H      0.383550000000     0.104800000000     0.349190000000     0.0375536  
H54      H      0.348850000000     0.575690000000     0.387120000000     0.0376363  
H55      H      0.338080000000     0.563150000000     0.437900000000     0.0517098  
H56      H      0.432070000000     0.123020000000     0.335120000000     0.0533809  
H57      H      0.457440000000     0.571300000000     0.485810000000     0.0379706  
H58      H      0.407790000000     0.536160000000     0.486800000000     0.0462613  
H59      H      0.493610000000     0.101000000000     0.446590000000     0.0385082  
H60      H      0.478440000000     0.147170000000     0.399990000000     0.0398003  
H61      H      0.102200000000     0.585930000000     0.380570000000     0.0541086  
H62      H      0.270900000000     0.055630000000     0.393710000000     0.0394397  
H63      H      0.137590000000     0.506290000000     0.349250000000     0.0435227  
H64      H      0.223010000000     0.615510000000     0.453840000000     0.0543066  
H65      H      0.239850000000     0.507850000000     0.376150000000     0.0384788  
H66      H      0.196220000000     0.499250000000     0.346570000000     0.0384229  
H67      H      0.152120000000     0.532460000000     0.323710000000     0.0506226  
H68      H      0.256510000000     0.528570000000     0.426120000000     0.0527069  
H69      H      0.128190000000     0.614770000000     0.416520000000     0.0387254  
H70      H      0.108140000000     0.549160000000     0.396580000000     0.0457411  
H71      H      0.174170000000     0.629260000000     0.439360000000     0.0377029  
H72      H      0.247340000000     0.110420000000     0.408950000000     0.0383633  
H73      H      0.178830000000     0.092830000000     0.071410000000     0.0523884  
H74      H      0.123850000000     0.128120000000     0.219020000000     0.0409843  
H75      H      0.235480000000     0.635010000000     0.137960000000     0.0531231  
H76      H      0.073010000000     0.582320000000     0.164340000000     0.0518501  
H77      H      0.184340000000     0.101690000000     0.225420000000     0.0392371  
H78      H      0.219080000000     0.633020000000     0.188130000000     0.0385711  
H79      H      0.238100000000     0.104040000000     0.138290000000     0.0521559  
H80      H      0.137880000000     0.581030000000     0.227480000000     0.0528265  
H81      H      0.120850000000     0.616840000000     0.080100000000     0.0387633  
H82      H      0.174400000000     0.616050000000     0.069200000000     0.0549254  
H83      H      0.086620000000     0.093050000000     0.116090000000     0.0400725  
H84      H      0.083680000000     0.124730000000     0.174780000000     0.0441231  
H85      H      0.327390000000     0.094480000000     0.156060000000     0.0521221  
H86      H      0.446990000000     0.504920000000     0.234770000000     0.0531188  
H87      H      0.319010000000     0.507800000000     0.163250000000     0.0393986  
H88      H      0.392780000000     0.056980000000     0.283350000000     0.0386128  
H89      H      0.416660000000     0.476010000000     0.200440000000     0.0365175  
H90      H      0.378840000000     0.477380000000     0.163160000000     0.0368748  
H91      H      0.344890000000     0.508000000000     0.134490000000     0.0538765  
H92      H      0.418250000000     0.503850000000     0.261060000000     0.0378131  
H93      H      0.334470000000     0.111350000000     0.206800000000     0.0381506  
H94      H      0.309230000000     0.061330000000     0.169700000000     0.0421547  
H95      H      0.365690000000     0.110050000000     0.249820000000     0.0381471  
H96      H      0.411730000000     0.090670000000     0.271810000000     0.0533758  
H97      H      0.522490000000     0.305470000000     0.396060000000     0.0534319  
H98      H      0.593180000000     0.154090000000     0.339950000000     0.0538864  
H99      H      0.101810000000     0.292030000000     0.402800000000     0.0390587  
H100     H      0.558970000000     0.210650000000     0.284630000000     0.0411208  
H101     H      0.122500000000     0.183570000000     0.370540000000     0.0382384  
H102     H      0.123630000000     0.224290000000     0.406990000000     0.0386406  
H103     H      0.098360000000     0.265660000000     0.432200000000     0.0526351  
H104     H      0.102040000000     0.183270000000     0.308400000000     0.039538   
H105     H      0.510070000000     0.292450000000     0.344490000000     0.0393268  
H106     H      0.053790000000     0.317750000000     0.381940000000     0.04102    
H107     H      0.510140000000     0.252210000000     0.307450000000     0.0389294  
H108     H      0.523030000000     0.199120000000     0.294850000000     0.0526526  
H109     H      0.488890000000     0.479960000000     0.331240000000     0.0471662  
H110     H      0.011980000000     0.448200000000     0.475640000000     0.0442033  
H111     H      0.051570000000     0.439010000000     0.334590000000     0.0426295  
H112     H      0.460410000000     0.388130000000     0.445020000000     0.0534393  
H113     H      0.075700000000     0.440090000000     0.444330000000     0.0383942  
H114     H      0.088800000000     0.453630000000     0.394210000000     0.0394638  
H115     H      0.074170000000     0.470580000000     0.346010000000     0.0495593  
H116     H      0.040420000000     0.419890000000     0.478620000000     0.05138    
H117     H      0.451180000000     0.441710000000     0.354680000000     0.0377746  
H118     H      0.500500000000     0.443370000000     0.318830000000     0.0369057  
H119     H      0.437990000000     0.419980000000     0.402010000000     0.0391751  
H120     H      0.457460000000     0.425680000000     0.459670000000     0.0423257  
H121     H      0.498880000000     0.434550000000     0.249630000000     0.0379791  
H122     H      0.544940000000     0.316530000000     0.161650000000     0.0422871  
H123     H      0.081610000000     0.449970000000     0.234040000000     0.0514427  
H124     H      0.488340000000     0.366430000000     0.118870000000     0.0538222  
H125     H      0.099090000000     0.357720000000     0.181990000000     0.0396771  
H126     H      0.101760000000     0.398310000000     0.218590000000     0.0391845  
H127     H      0.058790000000     0.427490000000     0.257050000000     0.0430472  
H128     H      0.074970000000     0.338100000000     0.137620000000     0.0528806  
H129     H      0.462770000000     0.434840000000     0.193630000000     0.0366376  
H130     H      0.990970000000     0.468370000000     0.221720000000     0.0569779  
H131     H      0.460220000000     0.397030000000     0.154630000000     0.0362485  
H132     H      0.488260000000     0.337240000000     0.145770000000     0.0372158  
H133     H      0.934070000000     0.148980000000     0.191580000000     0.0425295  
H134     H      0.472080000000     0.204130000000     0.061170000000     0.0465442  
H135     H      0.488800000000     0.091480000000     0.160690000000     0.0550189  
H136     H      0.015070000000     0.254070000000     0.119600000000     0.0512968  
H137     H      0.495020000000     0.137440000000     0.067970000000     0.0393364  
H138     H      0.485850000000     0.100300000000     0.106670000000     0.0392294  
H139     H      0.451170000000     0.101530000000     0.160460000000     0.0452445  
H140     H      0.507860000000     0.189470000000     0.053780000000     0.0553837  
H141     H      0.961050000000     0.214690000000     0.199190000000     0.0393612  
H142     H      0.960550000000     0.162280000000     0.217050000000     0.0538815  
H143     H      0.977870000000     0.251320000000     0.162660000000     0.0375266  
H144     H      0.980160000000     0.256970000000     0.103450000000     0.0395803  
H145     H      0.359020000000     0.467240000000     0.085270000000     0.0546715  
H146     H      0.413150000000     0.324630000000     0.998750000000     0.0536584  
H147     H      0.305100000000     0.425220000000     0.532000000000     0.0421103  
H148     H      0.413130000000     0.323440000000     0.081690000000     0.0372522  
H149     H      0.365480000000     0.345820000000     0.982090000000     0.0380035  
H150     H      0.331720000000     0.389160000000     0.984170000000     0.0382319  
H151     H      0.322120000000     0.441160000000     0.004010000000     0.0514865  
H152     H      0.394320000000     0.307910000000     0.029120000000     0.0386195  
H153     H      0.386790000000     0.429790000000     0.114610000000     0.0368084  
H154     H      0.330450000000     0.444050000000     0.588230000000     0.0406072  
H155     H      0.419490000000     0.385630000000     0.113250000000     0.0363525  
H156     H      0.444790000000     0.346930000000     0.084270000000     0.0525512  
H157     H      0.353060000000     0.171410000000     0.559520000000     0.0542418  
H158     H      0.470390000000     0.181870000000     0.945830000000     0.0393125  
H159     H      0.423920000000     0.128860000000     0.577470000000     0.0419722  
H160     H      0.432520000000     0.255170000000     0.968170000000     0.053948   
H161     H      0.490840000000     0.135740000000     0.991170000000     0.0379926  
H162     H      0.463230000000     0.107550000000     0.528790000000     0.0366482  
H163     H      0.416080000000     0.098200000000     0.553110000000     0.0545597  
H164     H      0.500720000000     0.187200000000     0.969890000000     0.0538448  
H165     H      0.361750000000     0.219820000000     0.533960000000     0.0381132  
H166     H      0.385700000000     0.174710000000     0.580540000000     0.0421334  
H167     H      0.387760000000     0.246400000000     0.995830000000     0.0374525  
H168     H      0.429170000000     0.221450000000     0.946190000000     0.04079    
H169     H      0.140440000000     0.352580000000     0.043840000000     0.0535749  
H170     H      0.182830000000     0.506560000000     0.579380000000     0.0450705  
H171     H      0.098360000000     0.415610000000     0.998960000000     0.040687   
H172     H      0.244020000000     0.458510000000     0.048130000000     0.0540036  
H173     H      0.125830000000     0.512800000000     0.544360000000     0.0401688  
H174     H      0.091010000000     0.475730000000     0.032770000000     0.0394928  
H175     H      0.075620000000     0.421340000000     0.526500000000     0.0547715  
H176     H      0.177920000000     0.528030000000     0.052780000000     0.0545483  
H177     H      0.193710000000     0.365020000000     0.039530000000     0.0389831  
H178     H      0.139960000000     0.365050000000     0.006850000000     0.0424864  
H179     H      0.230270000000     0.403540000000     0.052000000000     0.0380309  
H180     H      0.228450000000     0.462510000000     0.575990000000     0.0417255  
H181     H      0.271690000000     0.188280000000     0.567130000000     0.0526139  
H182     H      0.121100000000     0.184480000000     0.024320000000     0.0448659  
H183     H      0.263620000000     0.200020000000     0.985840000000     0.0370933  
H184     H      0.141230000000     0.256890000000     0.571320000000     0.0530315  
H185     H      0.155230000000     0.182110000000     0.966690000000     0.0376685  
H186     H      0.206780000000     0.171240000000     0.957930000000     0.0363088  
H187     H      0.255110000000     0.161050000000     0.978320000000     0.0501936  
H188     H      0.119080000000     0.210350000000     0.993960000000     0.0532546  
H189     H      0.237560000000     0.224020000000     0.592740000000     0.0392749  
H190     H      0.275190000000     0.215940000000     0.538590000000     0.0383429  
H191     H      0.186720000000     0.239330000000     0.599570000000     0.0392831  
H192     H      0.131700000000     0.218620000000     0.580400000000     0.0446301  
H193     H      0.403040000000     0.568270000000     0.000680000000     0.0562867  
H194     H      0.432960000000     0.149570000000     0.865100000000     0.0416435  
H195     H      0.361120000000     0.526440000000     0.935430000000     0.0454938  
H196     H      0.502650000000     0.115360000000     0.896570000000     0.0543993  
H197     H      0.383140000000     0.103320000000     0.849620000000     0.0375534  
H198     H      0.347660000000     0.571030000000     0.887010000000     0.037616   
H199     H      0.337130000000     0.558470000000     0.937850000000     0.0520111  
H200     H      0.431560000000     0.122130000000     0.835870000000     0.0534096  
H201     H      0.456400000000     0.569210000000     0.985670000000     0.0378959  
H202     H      0.407150000000     0.531440000000     0.984840000000     0.0455517  
H203     H      0.492990000000     0.099290000000     0.947250000000     0.0384628  
H204     H      0.477390000000     0.146000000000     0.901190000000     0.0396123  
H205     H      0.102310000000     0.587120000000     0.879840000000     0.053932   
H206     H      0.270700000000     0.055010000000     0.893900000000     0.0394357  
H207     H      0.136550000000     0.506460000000     0.848910000000     0.0436152  
H208     H      0.222920000000     0.614330000000     0.954180000000     0.0544549  
H209     H      0.238330000000     0.505900000000     0.877180000000     0.0384198  
H210     H      0.194830000000     0.498150000000     0.847190000000     0.0383599  
H211     H      0.151650000000     0.532660000000     0.823740000000     0.0504795  
H212     H      0.254830000000     0.526480000000     0.927310000000     0.0524729  
H213     H      0.128510000000     0.615540000000     0.915970000000     0.0386513  
H214     H      0.107240000000     0.550430000000     0.896330000000     0.0460429  
H215     H      0.174560000000     0.629120000000     0.939160000000     0.037654   
H216     H      0.247420000000     0.110040000000     0.909050000000     0.0383946  
H217     H      0.178490000000     0.091010000000     0.571230000000     0.0525344  
H218     H      0.123320000000     0.128500000000     0.718180000000     0.0409349  
H219     H      0.234780000000     0.634640000000     0.637790000000     0.0532063  
H220     H      0.072200000000     0.582370000000     0.664280000000     0.0518919  
H221     H      0.183760000000     0.101910000000     0.725170000000     0.0392528  
H222     H      0.218310000000     0.633030000000     0.687930000000     0.0385921  
H223     H      0.237830000000     0.102680000000     0.638340000000     0.0524206  
H224     H      0.137030000000     0.581470000000     0.727550000000     0.0528325  
H225     H      0.120240000000     0.616080000000     0.579870000000     0.0386438  
H226     H      0.173890000000     0.614790000000     0.569150000000     0.0548867  
H227     H      0.086250000000     0.091960000000     0.615740000000     0.040025   
H228     H      0.083230000000     0.124470000000     0.674030000000     0.0440961  
H229     H      0.326980000000     0.095070000000     0.656160000000     0.0521033  
H230     H      0.446140000000     0.504920000000     0.734190000000     0.0531747  
H231     H      0.318120000000     0.507790000000     0.662690000000     0.0393844  
H232     H      0.392460000000     0.057750000000     0.783450000000     0.0386195  
H233     H      0.415920000000     0.476050000000     0.699690000000     0.0364857  
H234     H      0.378120000000     0.477530000000     0.662390000000     0.0369252  
H235     H      0.344000000000     0.508140000000     0.633930000000     0.0538668  
H236     H      0.417410000000     0.503400000000     0.760470000000     0.0378183  
H237     H      0.334130000000     0.111980000000     0.706870000000     0.0381638  
H238     H      0.308890000000     0.061870000000     0.669810000000     0.0421121  
H239     H      0.365380000000     0.110710000000     0.749870000000     0.0381998  
H240     H      0.411480000000     0.091360000000     0.771810000000     0.0533664  
H241     H      0.522970000000     0.306130000000     0.896870000000     0.0534609  
H242     H      0.592680000000     0.154230000000     0.841330000000     0.0539761  
H243     H      0.102470000000     0.292270000000     0.902580000000     0.0390603  
H244     H      0.558520000000     0.210610000000     0.785690000000     0.0412042  
H245     H      0.122880000000     0.183850000000     0.869990000000     0.0382805  
H246     H      0.124300000000     0.224510000000     0.906500000000     0.038593   
H247     H      0.099240000000     0.265830000000     0.931960000000     0.0526656  
H248     H      0.101980000000     0.183680000000     0.807990000000     0.0395494  
H249     H      0.510090000000     0.292820000000     0.845440000000     0.0393453  
H250     H      0.054300000000     0.318040000000     0.882140000000     0.0410219  
H251     H      0.509830000000     0.252350000000     0.808630000000     0.0388994  
H252     H      0.522610000000     0.199240000000     0.796160000000     0.0526665  
H253     H      0.487920000000     0.480590000000     0.832750000000     0.0474061  
H254     H      0.013770000000     0.448130000000     0.976090000000     0.0442035  
H255     H      0.051050000000     0.439150000000     0.834400000000     0.0425796  
H256     H      0.461140000000     0.388650000000     0.946820000000     0.0534305  
H257     H      0.076910000000     0.439800000000     0.943740000000     0.038629   
H258     H      0.089270000000     0.453430000000     0.893460000000     0.0394412  
H259     H      0.073950000000     0.470600000000     0.845550000000     0.0496864  
H260     H      0.042110000000     0.419640000000     0.978530000000     0.0512338  
H261     H      0.450450000000     0.442700000000     0.856920000000     0.037823   
H262     H      0.499100000000     0.443960000000     0.820080000000     0.0369507  
H263     H      0.438070000000     0.420910000000     0.904440000000     0.0391704  
H264     H      0.458770000000     0.426140000000     0.961690000000     0.0422122  
H265     H      0.497860000000     0.434620000000     0.749270000000     0.0380303  
H266     H      0.544170000000     0.317540000000     0.660500000000     0.0424202  
H267     H      0.080900000000     0.450250000000     0.733820000000     0.0514331  
H268     H      0.487760000000     0.368010000000     0.617790000000     0.0540353  
H269     H      0.098270000000     0.358230000000     0.681330000000     0.0396717  
H270     H      0.101030000000     0.398630000000     0.718110000000     0.039187   
H271     H      0.058190000000     0.427620000000     0.756800000000     0.0429892  
H272     H      0.074030000000     0.338790000000     0.636970000000     0.0528322  
H273     H      0.461810000000     0.435490000000     0.693190000000     0.0365967  
H274     H      0.990150000000     0.468530000000     0.722000000000     0.0569867  
H275     H      0.459380000000     0.398070000000     0.653850000000     0.0363087  
H276     H      0.487260000000     0.338530000000     0.644380000000     0.0373989  
H277     H      0.933280000000     0.149390000000     0.692190000000     0.0425034  
H278     H      0.470690000000     0.204570000000     0.561720000000     0.0463308  
H279     H      0.489020000000     0.092440000000     0.661440000000     0.0550143  
H280     H      0.013420000000     0.254630000000     0.619410000000     0.0513146  
H281     H      0.494050000000     0.137980000000     0.568500000000     0.0392555  
H282     H      0.485440000000     0.101000000000     0.607470000000     0.0392817  
H283     H      0.451370000000     0.102370000000     0.661580000000     0.0453301  
H284     H      0.506410000000     0.189980000000     0.553890000000     0.0554626  
H285     H      0.960060000000     0.215180000000     0.699390000000     0.0393497  
H286     H      0.959960000000     0.162810000000     0.717400000000     0.0538533  
H287     H      0.976530000000     0.251780000000     0.662680000000     0.0375341  
H288     H      0.978440000000     0.257200000000     0.603350000000     0.0395473  
H289     H      0.364670000000     0.962900000000     0.577280000000     0.0549351  
H290     H      0.412940000000     0.814460000000     0.498090000000     0.0535321  
H291     H      0.306210000000     0.918120000000     0.028050000000     0.0409499  
H292     H      0.410300000000     0.815910000000     0.580400000000     0.037046   
H293     H      0.366640000000     0.837370000000     0.479490000000     0.0380816  
H294     H      0.334970000000     0.882510000000     0.479230000000     0.0382845  
H295     H      0.328360000000     0.935780000000     0.497010000000     0.0517428  
H296     H      0.392880000000     0.799980000000     0.528720000000     0.0379354  
H297     H      0.388310000000     0.924960000000     0.609870000000     0.0366331  
H298     H      0.330140000000     0.937830000000     0.083770000000     0.03993    
H299     H      0.418630000000     0.878920000000     0.611030000000     0.0362819  
H300     H      0.442920000000     0.837830000000     0.584010000000     0.0522277  
H301     H      0.351980000000     0.674530000000     0.067200000000     0.0549513  
H302     H      0.465800000000     0.677020000000     0.450030000000     0.0399932  
H303     H      0.421460000000     0.628690000000     0.083250000000     0.0417405  
H304     H      0.430930000000     0.752780000000     0.469780000000     0.0544018  
H305     H      0.484220000000     0.631540000000     0.496250000000     0.038381   
H306     H      0.457600000000     0.604330000000     0.033290000000     0.0370735  
H307     H      0.411250000000     0.598020000000     0.059790000000     0.0548556  
H308     H      0.496450000000     0.682120000000     0.473740000000     0.0529667  
H309     H      0.362130000000     0.722130000000     0.040710000000     0.0382979  
H310     H      0.385430000000     0.676480000000     0.087060000000     0.0415808  
H311     H      0.386620000000     0.747610000000     0.498960000000     0.0371667  
H312     H      0.425910000000     0.718100000000     0.449470000000     0.0409855  
H313     H      0.140480000000     0.847810000000     0.542050000000     0.0528807  
H314     H      0.189860000000     0.000890000000     0.069350000000     0.0432972  
H315     H      0.097550000000     0.907930000000     0.493690000000     0.0411256  
H316     H      0.244830000000     0.950910000000     0.520690000000     0.0540868  
H317     H      0.131710000000     0.008530000000     0.036020000000     0.0396434  
H318     H      0.093480000000     0.970270000000     0.524840000000     0.0388391  
H319     H      0.078770000000     0.917750000000     0.027250000000     0.0545728  
H320     H      0.182620000000     0.021020000000     0.533030000000     0.0540459  
H321     H      0.194060000000     0.857410000000     0.529450000000     0.0388461  
H322     H      0.138240000000     0.854500000000     0.504080000000     0.0430897  
H323     H      0.232570000000     0.895790000000     0.534200000000     0.0376574  
H324     H      0.236840000000     0.955940000000     0.062570000000     0.0418401  
H325     H      0.274190000000     0.696300000000     0.066820000000     0.0527917  
H326     H      0.119870000000     0.675930000000     0.535740000000     0.0410117  
H327     H      0.257290000000     0.704940000000     0.487970000000     0.0368596  
H328     H      0.138130000000     0.750460000000     0.078560000000     0.0533956  
H329     H      0.150090000000     0.675710000000     0.474590000000     0.0377024  
H330     H      0.201890000000     0.670290000000     0.463110000000     0.036334   
H331     H      0.251810000000     0.664830000000     0.481450000000     0.0494616  
H332     H      0.112250000000     0.698590000000     0.504110000000     0.0535808  
H333     H      0.237930000000     0.727900000000     0.093970000000     0.0387128  
H334     H      0.273230000000     0.722650000000     0.036980000000     0.0380853  
H335     H      0.186350000000     0.738400000000     0.103100000000     0.0384631  
H336     H      0.131950000000     0.710710000000     0.084850000000     0.0420022  
H337     H      0.411960000000     0.058780000000     0.493920000000     0.0559336  
H338     H      0.436690000000     0.639890000000     0.360910000000     0.0430852  
H339     H      0.374570000000     0.022810000000     0.425150000000     0.0436812  
H340     H      0.501940000000     0.599730000000     0.397990000000     0.0549631  
H341     H      0.381470000000     0.600460000000     0.352330000000     0.0373368  
H342     H      0.354780000000     0.071100000000     0.380480000000     0.0377154  
H343     H      0.345980000000     0.050340000000     0.428810000000     0.0530737  
H344     H      0.432210000000     0.608030000000     0.336350000000     0.0513923  
H345     H      0.463440000000     0.070460000000     0.479380000000     0.0382295  
H346     H      0.417280000000     0.026190000000     0.471330000000     0.0438557  
H347     H      0.490970000000     0.592720000000     0.450040000000     0.0383643  
H348     H      0.481840000000     0.634580000000     0.399240000000     0.0410996  
H349     H      0.107590000000     0.090010000000     0.377280000000     0.0535045  
H350     H      0.266960000000     0.560670000000     0.403880000000     0.0399562  
H351     H      0.136190000000     0.006270000000     0.349470000000     0.0435988  
H352     H      0.233270000000     0.113940000000     0.444900000000     0.0532723  
H353     H      0.240020000000     0.002610000000     0.369980000000     0.0387045  
H354     H      0.194370000000     0.995370000000     0.343280000000     0.0376741  
H355     H      0.150990000000     0.029310000000     0.321490000000     0.0511947  
H356     H      0.261780000000     0.024400000000     0.417030000000     0.0521817  
H357     H      0.136470000000     0.117430000000     0.412360000000     0.0386534  
H358     H      0.111250000000     0.053770000000     0.394920000000     0.0458287  
H359     H      0.184190000000     0.129610000000     0.432670000000     0.037963   
H360     H      0.239550000000     0.614510000000     0.418840000000     0.0384477  
H361     H      0.174410000000     0.654280000000     0.082750000000     0.0437517  
H362     H      0.122190000000     0.618920000000     0.228600000000     0.0435107  
H363     H      0.230850000000     0.063760000000     0.137690000000     0.0446334  
H364     H      0.070370000000     0.087120000000     0.166830000000     0.0534472  
H365     H      0.182770000000     0.615680000000     0.223220000000     0.0386631  
H366     H      0.223970000000     0.094920000000     0.190710000000     0.037866   
H367     H      0.211040000000     0.665270000000     0.128370000000     0.0413652  
H368     H      0.132730000000     0.092420000000     0.236130000000     0.0529755  
H369     H      0.126260000000     0.084820000000     0.081570000000     0.038462   
H370     H      0.183060000000     0.055500000000     0.086960000000     0.0444936  
H371     H      0.083440000000     0.603710000000     0.115790000000     0.0398915  
H372     H      0.076080000000     0.620510000000     0.178300000000     0.0466601  
H373     H      0.317650000000     0.596640000000     0.165270000000     0.0520057  
H374     H      0.445170000000     0.002590000000     0.245640000000     0.0515917  
H375     H      0.336650000000     0.003910000000     0.146850000000     0.040999   
H376     H      0.400210000000     0.558730000000     0.282280000000     0.0396656  
H377     H      0.422260000000     0.975040000000     0.205120000000     0.0362922  
H378     H      0.392500000000     0.977390000000     0.161180000000     0.0367007  
H379     H      0.368450000000     0.013210000000     0.126370000000     0.054596   
H380     H      0.412210000000     0.003660000000     0.266110000000     0.0369446  
H381     H      0.331450000000     0.613370000000     0.215300000000     0.0385801  
H382     H      0.299890000000     0.564760000000     0.182000000000     0.0415285  
H383     H      0.368880000000     0.611650000000     0.253050000000     0.0386306  
H384     H      0.417410000000     0.592000000000     0.267490000000     0.0538708  
H385     H      0.535140000000     0.801170000000     0.400290000000     0.0530116  
H386     H      0.588490000000     0.638170000000     0.361460000000     0.0539148  
H387     H      0.106110000000     0.786280000000     0.406410000000     0.0390299  
H388     H      0.570370000000     0.695350000000     0.298190000000     0.0411853  
H389     H      0.122540000000     0.676350000000     0.375800000000     0.0383454  
H390     H      0.124780000000     0.717430000000     0.411840000000     0.0387047  
H391     H      0.100980000000     0.760430000000     0.436010000000     0.0524823  
H392     H      0.103750000000     0.676100000000     0.313370000000     0.039787   
H393     H      0.525500000000     0.786020000000     0.348570000000     0.0395165  
H394     H      0.059950000000     0.814000000000     0.384390000000     0.0408645  
H395     H      0.524190000000     0.743490000000     0.313960000000     0.0387431  
H396     H      0.532530000000     0.689110000000     0.304850000000     0.0530728  
H397     H      0.485230000000     0.000460000000     0.348300000000     0.0512734  
H398     H      0.014120000000     0.944670000000     0.478340000000     0.0441484  
H399     H      0.049990000000     0.943830000000     0.336440000000     0.0436493  
H400     H      0.465320000000     0.882830000000     0.440850000000     0.053414   
H401     H      0.077280000000     0.938160000000     0.445200000000     0.0381917  
H402     H      0.089190000000     0.954800000000     0.395590000000     0.0394265  
H403     H      0.073470000000     0.974320000000     0.348600000000     0.0491455  
H404     H      0.042640000000     0.916310000000     0.479230000000     0.0504372  
H405     H      0.446390000000     0.955560000000     0.364030000000     0.0377862  
H406     H      0.489400000000     0.967730000000     0.325930000000     0.0377242  
H407     H      0.436580000000     0.924270000000     0.407290000000     0.0389685  
H408     H      0.457690000000     0.915790000000     0.462040000000     0.042685   
H409     H      0.495100000000     0.940530000000     0.247070000000     0.0386544  
H410     H      0.544130000000     0.820500000000     0.162900000000     0.0423557  
H411     H      0.080440000000     0.951060000000     0.234320000000     0.0510475  
H412     H      0.487460000000     0.868830000000     0.118030000000     0.0539707  
H413     H      0.098440000000     0.858310000000     0.183220000000     0.0395595  
H414     H      0.100670000000     0.899290000000     0.219460000000     0.0391183  
H415     H      0.057110000000     0.928850000000     0.257040000000     0.0431472  
H416     H      0.074840000000     0.838390000000     0.138500000000     0.0525445  
H417     H      0.460310000000     0.938980000000     0.190630000000     0.0364292  
H418     H      0.990430000000     0.970180000000     0.219550000000     0.0572118  
H419     H      0.458570000000     0.900120000000     0.152610000000     0.0363892  
H420     H      0.486830000000     0.840480000000     0.145680000000     0.0371531  
H421     H      0.932470000000     0.646430000000     0.193390000000     0.0427209  
H422     H      0.452590000000     0.711220000000     0.075410000000     0.0425262  
H423     H      0.533470000000     0.617330000000     0.161730000000     0.0429027  
H424     H      0.011410000000     0.752870000000     0.120640000000     0.0511837  
H425     H      0.482910000000     0.646660000000     0.072300000000     0.0413509  
H426     H      0.496610000000     0.610650000000     0.110510000000     0.0385884  
H427     H      0.498390000000     0.600310000000     0.163680000000     0.0518912  
H428     H      0.483830000000     0.699640000000     0.054560000000     0.058224   
H429     H      0.957310000000     0.712670000000     0.199780000000     0.0392656  
H430     H      0.959260000000     0.660320000000     0.218260000000     0.0537602  
H431     H      0.973530000000     0.749450000000     0.163100000000     0.0375516  
H432     H      0.976790000000     0.754500000000     0.103670000000     0.0395202  
H433     H      0.361020000000     0.961990000000     0.079620000000     0.0542142  
H434     H      0.412700000000     0.814870000000     0.998510000000     0.0534381  
H435     H      0.307950000000     0.919930000000     0.526900000000     0.0417229  
H436     H      0.410590000000     0.816110000000     0.080950000000     0.0370474  
H437     H      0.366160000000     0.837130000000     0.980060000000     0.038148   
H438     H      0.333710000000     0.881640000000     0.980070000000     0.0382377  
H439     H      0.325340000000     0.934500000000     0.998100000000     0.0511521  
H440     H      0.393000000000     0.799940000000     0.029170000000     0.0380078  
H441     H      0.386720000000     0.924540000000     0.110740000000     0.0365353  
H442     H      0.332520000000     0.940060000000     0.582820000000     0.0406358  
H443     H      0.418000000000     0.879210000000     0.111510000000     0.036321   
H444     H      0.442810000000     0.838700000000     0.084270000000     0.0523239  
H445     H      0.351150000000     0.675780000000     0.566650000000     0.0547405  
H446     H      0.466040000000     0.677330000000     0.949730000000     0.039785   
H447     H      0.420830000000     0.631120000000     0.584210000000     0.0416803  
H448     H      0.430770000000     0.752670000000     0.970410000000     0.0542644  
H449     H      0.484530000000     0.631230000000     0.995190000000     0.0379247  
H450     H      0.457150000000     0.605310000000     0.534650000000     0.036992   
H451     H      0.411090000000     0.599620000000     0.561540000000     0.0548309  
H452     H      0.496650000000     0.682310000000     0.973510000000     0.0529438  
H453     H      0.361630000000     0.723210000000     0.539840000000     0.038117   
H454     H      0.384310000000     0.678370000000     0.586950000000     0.0414391  
H455     H      0.386800000000     0.747100000000     0.999950000000     0.0368669  
H456     H      0.425810000000     0.718170000000     0.949830000000     0.0409241  
H457     H      0.141060000000     0.847880000000     0.042280000000     0.0531745  
H458     H      0.190370000000     0.001340000000     0.566580000000     0.0435253  
H459     H      0.097830000000     0.908050000000     0.994570000000     0.0408457  
H460     H      0.246020000000     0.951010000000     0.025390000000     0.0539014  
H461     H      0.131310000000     0.008080000000     0.535290000000     0.0395326  
H462     H      0.094090000000     0.970730000000     0.024770000000     0.0388516  
H463     H      0.078000000000     0.917290000000     0.526000000000     0.0543905  
H464     H      0.183060000000     0.021720000000     0.036350000000     0.0538165  
H465     H      0.194450000000     0.857740000000     0.031850000000     0.0389327  
H466     H      0.138710000000     0.855900000000     0.004280000000     0.0429253  
H467     H      0.232820000000     0.896080000000     0.037860000000     0.0375504  
H468     H      0.237290000000     0.955680000000     0.558830000000     0.0423432  
H469     H      0.272840000000     0.696750000000     0.567390000000     0.0528572  
H470     H      0.120120000000     0.677130000000     0.033330000000     0.0415048  
H471     H      0.259220000000     0.703940000000     0.987200000000     0.036811   
H472     H      0.136360000000     0.749520000000     0.580180000000     0.0534428  
H473     H      0.151750000000     0.675850000000     0.973370000000     0.0374601  
H474     H      0.203560000000     0.669580000000     0.962370000000     0.0364655  
H475     H      0.253560000000     0.664110000000     0.980930000000     0.0492143  
H476     H      0.114470000000     0.700810000000     0.001950000000     0.05374    
H477     H      0.236540000000     0.727910000000     0.594930000000     0.0387092  
H478     H      0.271590000000     0.723300000000     0.537720000000     0.0380175  
H479     H      0.184920000000     0.737830000000     0.604440000000     0.0384661  
H480     H      0.130730000000     0.709680000000     0.586420000000     0.0419353  
H481     H      0.412030000000     0.054890000000     0.993860000000     0.0557164  
H482     H      0.433770000000     0.637730000000     0.860910000000     0.0430178  
H483     H      0.374420000000     0.020450000000     0.924860000000     0.0433171  
H484     H      0.500100000000     0.599740000000     0.898100000000     0.0548686  
H485     H      0.379690000000     0.596700000000     0.852260000000     0.0372736  
H486     H      0.354520000000     0.069050000000     0.880490000000     0.0376705  
H487     H      0.345710000000     0.047830000000     0.928670000000     0.053155   
H488     H      0.430280000000     0.605750000000     0.836340000000     0.0513541  
H489     H      0.463040000000     0.067960000000     0.979570000000     0.0381957  
H490     H      0.416970000000     0.023110000000     0.970160000000     0.0434741  
H491     H      0.489280000000     0.592010000000     0.950060000000     0.0382876  
H492     H      0.478870000000     0.633840000000     0.899390000000     0.0409204  
H493     H      0.107620000000     0.090550000000     0.877080000000     0.0534812  
H494     H      0.266290000000     0.558090000000     0.904920000000     0.0400591  
H495     H      0.135850000000     0.006610000000     0.849170000000     0.0436043  
H496     H      0.233290000000     0.113670000000     0.944960000000     0.053305   
H497     H      0.239530000000     0.002270000000     0.870080000000     0.0386859  
H498     H      0.193910000000     0.995360000000     0.843250000000     0.0376282  
H499     H      0.150800000000     0.029740000000     0.821350000000     0.0511089  
H500     H      0.261270000000     0.023890000000     0.917240000000     0.0520013  
H501     H      0.136580000000     0.117770000000     0.912230000000     0.0386788  
H502     H      0.111020000000     0.054320000000     0.894790000000     0.045893   
H503     H      0.184320000000     0.129640000000     0.932650000000     0.0379779  
H504     H      0.239790000000     0.612840000000     0.919340000000     0.0385667  
H505     H      0.173790000000     0.653250000000     0.582080000000     0.0439212  
H506     H      0.121310000000     0.619360000000     0.728320000000     0.0433727  
H507     H      0.230140000000     0.062480000000     0.637720000000     0.0443151  
H508     H      0.069880000000     0.086770000000     0.666550000000     0.0533896  
H509     H      0.181940000000     0.616010000000     0.723080000000     0.0386418  
H510     H      0.223440000000     0.094510000000     0.690630000000     0.0379374  
H511     H      0.210360000000     0.664830000000     0.627940000000     0.0415724  
H512     H      0.132110000000     0.093110000000     0.735900000000     0.0529509  
H513     H      0.125940000000     0.083210000000     0.581400000000     0.0384198  
H514     H      0.182920000000     0.053960000000     0.587320000000     0.0441893  
H515     H      0.082740000000     0.603350000000     0.615610000000     0.0398574  
H516     H      0.075370000000     0.620630000000     0.678040000000     0.046607   
H517     H      0.316530000000     0.596540000000     0.665180000000     0.0520491  
H518     H      0.444790000000     0.003190000000     0.745760000000     0.0516156  
H519     H      0.336360000000     0.004520000000     0.646910000000     0.040943   
H520     H      0.398990000000     0.557970000000     0.782080000000     0.0395768  
H521     H      0.421920000000     0.975670000000     0.705230000000     0.0362546  
H522     H      0.392180000000     0.978030000000     0.661280000000     0.0366958  
H523     H      0.368160000000     0.013870000000     0.626450000000     0.0545784  
H524     H      0.411810000000     0.004310000000     0.766210000000     0.0369717  
H525     H      0.330140000000     0.612920000000     0.715380000000     0.0386079  
H526     H      0.298830000000     0.564460000000     0.681640000000     0.0415276  
H527     H      0.367500000000     0.611050000000     0.753200000000     0.038654   
H528     H      0.416040000000     0.591480000000     0.767630000000     0.0539206  
H529     H      0.533730000000     0.802100000000     0.900140000000     0.0530472  
H530     H      0.586830000000     0.639100000000     0.861490000000     0.0538459  
H531     H      0.105720000000     0.786750000000     0.905690000000     0.0390033  
H532     H      0.567570000000     0.695800000000     0.798030000000     0.0413132  
H533     H      0.122190000000     0.676860000000     0.874940000000     0.0382784  
H534     H      0.124650000000     0.717960000000     0.910950000000     0.0386843  
H535     H      0.100950000000     0.760890000000     0.935330000000     0.0524672  
H536     H      0.102820000000     0.676520000000     0.812690000000     0.0397458  
H537     H      0.523220000000     0.786550000000     0.848690000000     0.0395292  
H538     H      0.059290000000     0.814310000000     0.884090000000     0.0408663  
H539     H      0.521480000000     0.743780000000     0.814360000000     0.0387136  
H540     H      0.529900000000     0.689370000000     0.805450000000     0.0530608  
H541     H      0.484870000000     0.000430000000     0.848730000000     0.0511676  
H542     H      0.015130000000     0.944680000000     0.978430000000     0.0441278  
H543     H      0.049590000000     0.944240000000     0.836190000000     0.0436183  
H544     H      0.464690000000     0.883200000000     0.941670000000     0.0534237  
H545     H      0.077920000000     0.937980000000     0.944650000000     0.0382153  
H546     H      0.089420000000     0.954780000000     0.894990000000     0.0393442  
H547     H      0.073330000000     0.974570000000     0.848240000000     0.0491978  
H548     H      0.043520000000     0.916170000000     0.978940000000     0.0502853  
H549     H      0.446070000000     0.955530000000     0.864480000000     0.0377528  
H550     H      0.489240000000     0.967610000000     0.826510000000     0.0376877  
H551     H      0.436150000000     0.924400000000     0.907820000000     0.0389556  
H552     H      0.457160000000     0.916280000000     0.962740000000     0.0425963  
H553     H      0.494540000000     0.940840000000     0.747040000000     0.0386694  
H554     H      0.543610000000     0.821280000000     0.662570000000     0.0424258  
H555     H      0.079980000000     0.951580000000     0.734210000000     0.0510716  
H556     H      0.487790000000     0.870490000000     0.617280000000     0.0540753  
H557     H      0.097910000000     0.858800000000     0.683130000000     0.0395447  
H558     H      0.100170000000     0.899760000000     0.719380000000     0.0390997  
H559     H      0.056670000000     0.929370000000     0.756930000000     0.043133   
H560     H      0.074310000000     0.838920000000     0.638400000000     0.0524875  
H561     H      0.460110000000     0.939960000000     0.690290000000     0.0364697  
H562     H      0.989980000000     0.970760000000     0.719490000000     0.05725    
H563     H      0.458530000000     0.901430000000     0.651960000000     0.0363579  
H564     H      0.486360000000     0.841860000000     0.644630000000     0.0372753  
H565     H      0.931530000000     0.646590000000     0.693580000000     0.0427136  
H566     H      0.451850000000     0.712430000000     0.576500000000     0.042402   
H567     H      0.532950000000     0.618280000000     0.662250000000     0.042904   
H568     H      0.010580000000     0.752990000000     0.620850000000     0.0511957  
H569     H      0.482240000000     0.647710000000     0.572870000000     0.0414689  
H570     H      0.495960000000     0.611560000000     0.610940000000     0.0385485  
H571     H      0.497970000000     0.600980000000     0.663960000000     0.0519336  
H572     H      0.482730000000     0.700640000000     0.555260000000     0.0582596  
H573     H      0.956290000000     0.712830000000     0.699910000000     0.0392461  
H574     H      0.958350000000     0.660460000000     0.718430000000     0.0537553  
H575     H      0.972550000000     0.749610000000     0.663240000000     0.0375373  
H576     H      0.975980000000     0.754680000000     0.603860000000     0.0395728  
H577     H      0.866750000000     0.469630000000     0.581000000000     0.0552664  
H578     H      0.910920000000     0.322350000000     0.498250000000     0.0537938  
H579     H      0.807380000000     0.426190000000     0.033300000000     0.0417619  
H580     H      0.910490000000     0.322060000000     0.580820000000     0.0372073  
H581     H      0.864090000000     0.345890000000     0.481590000000     0.0382547  
H582     H      0.832710000000     0.391200000000     0.483220000000     0.0384001  
H583     H      0.826730000000     0.444030000000     0.502320000000     0.0517752  
H584     H      0.891430000000     0.307170000000     0.528940000000     0.0385238  
H585     H      0.890790000000     0.430700000000     0.612650000000     0.0368591  
H586     H      0.834510000000     0.446190000000     0.089270000000     0.0404698  
H587     H      0.920620000000     0.384300000000     0.612070000000     0.0363911  
H588     H      0.943500000000     0.343400000000     0.583730000000     0.0523448  
H589     H      0.853960000000     0.169410000000     0.060890000000     0.0543238  
H590     H      0.968860000000     0.179310000000     0.446220000000     0.039622   
H591     H      0.924800000000     0.126980000000     0.078820000000     0.0420668  
H592     H      0.930840000000     0.253030000000     0.466620000000     0.0542505  
H593     H      0.989910000000     0.134790000000     0.492890000000     0.0383178  
H594     H      0.964310000000     0.105820000000     0.030240000000     0.0370237  
H595     H      0.917090000000     0.096310000000     0.054420000000     0.0545177  
H596     H      0.999350000000     0.185490000000     0.469900000000     0.0544524  
H597     H      0.862450000000     0.217710000000     0.035130000000     0.038324   
H598     H      0.886660000000     0.172690000000     0.081840000000     0.0422066  
H599     H      0.886080000000     0.244790000000     0.494500000000     0.0379289  
H600     H      0.927640000000     0.218640000000     0.445590000000     0.0409817  
H601     H      0.640550000000     0.351600000000     0.542090000000     0.0532275  
H602     H      0.689360000000     0.502690000000     0.082560000000     0.0450576  
H603     H      0.598020000000     0.414440000000     0.496930000000     0.0411002  
H604     H      0.744380000000     0.457000000000     0.530430000000     0.0543854  
H605     H      0.630930000000     0.512390000000     0.049680000000     0.0404968  
H606     H      0.592480000000     0.474650000000     0.531760000000     0.0395899  
H607     H      0.578930000000     0.422070000000     0.033650000000     0.0549646  
H608     H      0.680840000000     0.525710000000     0.544830000000     0.0545648  
H609     H      0.694170000000     0.362800000000     0.531670000000     0.0388766  
H610     H      0.638770000000     0.361390000000     0.504690000000     0.0428577  
H611     H      0.732140000000     0.401160000000     0.539740000000     0.0378128  
H612     H      0.735770000000     0.459450000000     0.073480000000     0.0417588  
H613     H      0.772880000000     0.186280000000     0.068160000000     0.0525399  
H614     H      0.619500000000     0.183120000000     0.526680000000     0.0447821  
H615     H      0.761340000000     0.198790000000     0.488280000000     0.0372856  
H616     H      0.643270000000     0.256660000000     0.071970000000     0.0530109  
H617     H      0.653210000000     0.181900000000     0.468290000000     0.0377391  
H618     H      0.704770000000     0.171050000000     0.459640000000     0.0361979  
H619     H      0.752610000000     0.159700000000     0.480390000000     0.0505664  
H620     H      0.616320000000     0.208440000000     0.496140000000     0.053566   
H621     H      0.738990000000     0.222370000000     0.093690000000     0.0392976  
H622     H      0.776870000000     0.214090000000     0.039830000000     0.0384243  
H623     H      0.688320000000     0.238390000000     0.100240000000     0.0393065  
H624     H      0.633080000000     0.218420000000     0.080450000000     0.0446959  
H625     H      0.905620000000     0.580040000000     0.498630000000     0.0558802  
H626     H      0.933070000000     0.151140000000     0.362450000000     0.0417821  
H627     H      0.863900000000     0.536670000000     0.433460000000     0.0461062  
H628     H      0.002830000000     0.117080000000     0.393960000000     0.0525953  
H629     H      0.882790000000     0.104810000000     0.348520000000     0.0375229  
H630     H      0.848930000000     0.582730000000     0.386860000000     0.0373347  
H631     H      0.839730000000     0.568310000000     0.437450000000     0.051886   
H632     H      0.931150000000     0.122980000000     0.333880000000     0.0534213  
H633     H      0.960000000000     0.578440000000     0.482720000000     0.0384338  
H634     H      0.911250000000     0.542640000000     0.484720000000     0.0463732  
H635     H      0.993500000000     0.102740000000     0.445210000000     0.0389648  
H636     H      0.977960000000     0.148140000000     0.398100000000     0.0398943  
H637     H      0.603260000000     0.574980000000     0.386720000000     0.0542009  
H638     H      0.771920000000     0.055830000000     0.393850000000     0.0392634  
H639     H      0.644720000000     0.500740000000     0.353110000000     0.0428509  
H640     H      0.723470000000     0.616440000000     0.456010000000     0.054068   
H641     H      0.747740000000     0.512850000000     0.375370000000     0.0383982  
H642     H      0.704080000000     0.500030000000     0.347240000000     0.0384203  
H643     H      0.656320000000     0.527630000000     0.326700000000     0.0510996  
H644     H      0.764510000000     0.534430000000     0.424650000000     0.05311    
H645     H      0.627780000000     0.606250000000     0.421850000000     0.0380092  
H646     H      0.613980000000     0.538510000000     0.400840000000     0.0447983  
H647     H      0.672970000000     0.625320000000     0.443330000000     0.0377256  
H648     H      0.748100000000     0.110090000000     0.409660000000     0.0382686  
H649     H      0.679670000000     0.086770000000     0.071990000000     0.0527064  
H650     H      0.626040000000     0.126210000000     0.219080000000     0.0410175  
H651     H      0.739790000000     0.633200000000     0.140200000000     0.053097   
H652     H      0.578040000000     0.578550000000     0.168250000000     0.0518723  
H653     H      0.685890000000     0.098140000000     0.226000000000     0.0392476  
H654     H      0.724730000000     0.628150000000     0.190550000000     0.0383874  
H655     H      0.739770000000     0.097360000000     0.139230000000     0.0527787  
H656     H      0.644680000000     0.572610000000     0.228970000000     0.0520892  
H657     H      0.624100000000     0.615710000000     0.084250000000     0.0388018  
H658     H      0.677540000000     0.615210000000     0.072220000000     0.0549885  
H659     H      0.587820000000     0.090020000000     0.116920000000     0.0404057  
H660     H      0.585740000000     0.122960000000     0.175060000000     0.0442952  
H661     H      0.826630000000     0.091220000000     0.156760000000     0.0521446  
H662     H      0.944930000000     0.501050000000     0.239890000000     0.0523695  
H663     H      0.822310000000     0.506030000000     0.159330000000     0.0398106  
H664     H      0.892410000000     0.052960000000     0.283670000000     0.0385247  
H665     H      0.917370000000     0.473720000000     0.201990000000     0.0366071  
H666     H      0.882180000000     0.476690000000     0.162280000000     0.0366969  
H667     H      0.850250000000     0.508750000000     0.132700000000     0.0540998  
H668     H      0.914420000000     0.499040000000     0.264110000000     0.0370438  
H669     H      0.833260000000     0.107390000000     0.207700000000     0.0381649  
H670     H      0.809100000000     0.057380000000     0.169720000000     0.0419776  
H671     H      0.864370000000     0.106040000000     0.250800000000     0.038252   
H672     H      0.910700000000     0.087250000000     0.272650000000     0.0534698  
H673     H      0.019800000000     0.303460000000     0.395230000000     0.0531551  
H674     H      0.092890000000     0.154880000000     0.334990000000     0.0540825  
H675     H      0.604300000000     0.293240000000     0.404520000000     0.0388586  
H676     H      0.056240000000     0.211430000000     0.281700000000     0.040847   
H677     H      0.623340000000     0.183200000000     0.374780000000     0.0380322  
H678     H      0.624940000000     0.224820000000     0.410300000000     0.0387715  
H679     H      0.600370000000     0.267500000000     0.434150000000     0.0525498  
H680     H      0.603770000000     0.180960000000     0.312850000000     0.0395855  
H681     H      0.007080000000     0.291290000000     0.343600000000     0.0389114  
H682     H      0.556800000000     0.318950000000     0.382800000000     0.0409412  
H683     H      0.007360000000     0.251820000000     0.305830000000     0.0384766  
H684     H      0.020750000000     0.198930000000     0.292450000000     0.0522171  
H685     H      0.984160000000     0.492970000000     0.338440000000     0.0498977  
H686     H      0.511610000000     0.450640000000     0.476260000000     0.0437732  
H687     H      0.557740000000     0.429080000000     0.337650000000     0.0418555  
H688     H      0.961690000000     0.386130000000     0.440920000000     0.0541768  
H689     H      0.576340000000     0.440650000000     0.447840000000     0.0382943  
H690     H      0.591680000000     0.449570000000     0.397450000000     0.0394961  
H691     H      0.579220000000     0.462130000000     0.347410000000     0.0491346  
H692     H      0.539690000000     0.422570000000     0.481840000000     0.051275   
H693     H      0.946420000000     0.450930000000     0.357750000000     0.0379748  
H694     H      0.992390000000     0.458290000000     0.319690000000     0.0376342  
H695     H      0.935480000000     0.423730000000     0.403120000000     0.0393067  
H696     H      0.956170000000     0.421390000000     0.459310000000     0.0432205  
H697     H      0.998050000000     0.438410000000     0.247000000000     0.0408775  
H698     H      0.047610000000     0.320060000000     0.159750000000     0.0422575  
H699     H      0.582530000000     0.443700000000     0.238160000000     0.0522117  
H700     H      0.988830000000     0.367650000000     0.117370000000     0.0565047  
H701     H      0.597300000000     0.351400000000     0.185540000000     0.0396895  
H702     H      0.600840000000     0.391280000000     0.222740000000     0.0391953  
H703     H      0.558610000000     0.421910000000     0.260620000000     0.0430475  
H704     H      0.573440000000     0.333700000000     0.140380000000     0.0530732  
H705     H      0.961400000000     0.434910000000     0.191990000000     0.0362768  
H706     H      0.492410000000     0.465860000000     0.225750000000     0.0537916  
H707     H      0.959570000000     0.396360000000     0.153650000000     0.0358242  
H708     H      0.989420000000     0.338090000000     0.144040000000     0.039831   
H709     H      0.436480000000     0.150640000000     0.195220000000     0.0427157  
H710     H      0.975670000000     0.202040000000     0.059820000000     0.0467034  
H711     H      0.986090000000     0.088890000000     0.159600000000     0.0556209  
H712     H      0.511180000000     0.257800000000     0.118810000000     0.0540876  
H713     H      0.997870000000     0.135400000000     0.067670000000     0.0392308  
H714     H      0.986390000000     0.098260000000     0.105750000000     0.039668   
H715     H      0.948870000000     0.100450000000     0.158050000000     0.0449225  
H716     H      0.011890000000     0.187210000000     0.054510000000     0.0524     
H717     H      0.462620000000     0.216720000000     0.200650000000     0.0387896  
H718     H      0.464470000000     0.164600000000     0.218580000000     0.0536664  
H719     H      0.477100000000     0.253490000000     0.163270000000     0.0372881  
H720     H      0.475960000000     0.257780000000     0.103010000000     0.0396845  
H721     H      0.865520000000     0.469430000000     0.082560000000     0.0546708  
H722     H      0.912250000000     0.323180000000     0.998490000000     0.0536525  
H723     H      0.807460000000     0.427450000000     0.532590000000     0.0421819  
H724     H      0.912100000000     0.322590000000     0.081170000000     0.0372389  
H725     H      0.865230000000     0.346160000000     0.981880000000     0.038111   
H726     H      0.833170000000     0.390920000000     0.983760000000     0.0381243  
H727     H      0.825520000000     0.443340000000     0.003170000000     0.0513387  
H728     H      0.892980000000     0.307540000000     0.029110000000     0.0385918  
H729     H      0.890810000000     0.430730000000     0.113310000000     0.0367345  
H730     H      0.834690000000     0.447150000000     0.588230000000     0.0409219  
H731     H      0.921400000000     0.384900000000     0.112430000000     0.0364429  
H732     H      0.944780000000     0.344510000000     0.083910000000     0.0524216  
H733     H      0.853050000000     0.170160000000     0.560580000000     0.0541377  
H734     H      0.970180000000     0.179510000000     0.946870000000     0.0390418  
H735     H      0.924120000000     0.128590000000     0.579000000000     0.0420724  
H736     H      0.931990000000     0.253060000000     0.967800000000     0.0541162  
H737     H      0.990940000000     0.134520000000     0.993150000000     0.0378975  
H738     H      0.963480000000     0.106530000000     0.530410000000     0.036855   
H739     H      0.916590000000     0.097350000000     0.555200000000     0.0544601  
H740     H      0.000520000000     0.185510000000     0.970790000000     0.0516272  
H741     H      0.861470000000     0.218310000000     0.534440000000     0.0381127  
H742     H      0.885710000000     0.173910000000     0.581530000000     0.0421102  
H743     H      0.887190000000     0.244580000000     0.995510000000     0.0375325  
H744     H      0.928820000000     0.218880000000     0.946460000000     0.0408838  
H745     H      0.641780000000     0.351890000000     0.044540000000     0.0534467  
H746     H      0.688350000000     0.504080000000     0.577300000000     0.0454541  
H747     H      0.598470000000     0.415170000000     0.000640000000     0.0414443  
H748     H      0.746290000000     0.456900000000     0.036420000000     0.0540564  
H749     H      0.629650000000     0.512080000000     0.545320000000     0.0402842  
H750     H      0.593770000000     0.475220000000     0.035450000000     0.0396763  
H751     H      0.577510000000     0.421570000000     0.529150000000     0.0547031  
H752     H      0.682100000000     0.526110000000     0.051280000000     0.0548001  
H753     H      0.695220000000     0.363070000000     0.034940000000     0.0389514  
H754     H      0.639670000000     0.362670000000     0.007150000000     0.0428787  
H755     H      0.733170000000     0.401200000000     0.043950000000     0.0378017  
H756     H      0.735260000000     0.459700000000     0.568370000000     0.0422966  
H757     H      0.771070000000     0.186160000000     0.568720000000     0.0525969  
H758     H      0.620490000000     0.184150000000     0.025110000000     0.0449568  
H759     H      0.763360000000     0.198810000000     0.987670000000     0.037196   
H760     H      0.641340000000     0.256290000000     0.572410000000     0.0530798  
H761     H      0.655030000000     0.182170000000     0.967660000000     0.0375447  
H762     H      0.706550000000     0.170970000000     0.959150000000     0.0363449  
H763     H      0.754610000000     0.159990000000     0.979820000000     0.050375   
H764     H      0.618890000000     0.210360000000     0.995000000000     0.0532696  
H765     H      0.737140000000     0.222090000000     0.594330000000     0.0392823  
H766     H      0.775000000000     0.214000000000     0.540400000000     0.0384214  
H767     H      0.686420000000     0.237960000000     0.600920000000     0.0393202  
H768     H      0.631300000000     0.218130000000     0.581320000000     0.0446524  
H769     H      0.905430000000     0.578150000000     0.998840000000     0.0559083  
H770     H      0.932930000000     0.151490000000     0.863090000000     0.0417411  
H771     H      0.863580000000     0.535190000000     0.933680000000     0.045826   
H772     H      0.002830000000     0.117450000000     0.894210000000     0.0525582  
H773     H      0.882830000000     0.105010000000     0.848750000000     0.0375431  
H774     H      0.848280000000     0.581020000000     0.886940000000     0.0373412  
H775     H      0.839190000000     0.566680000000     0.937580000000     0.0519187  
H776     H      0.931060000000     0.123630000000     0.834260000000     0.0534602  
H777     H      0.959430000000     0.577840000000     0.982770000000     0.0383841  
H778     H      0.910860000000     0.541030000000     0.984140000000     0.0460627  
H779     H      0.993590000000     0.102680000000     0.945390000000     0.0389359  
H780     H      0.977850000000     0.148370000000     0.898600000000     0.0398837  
H781     H      0.602650000000     0.576100000000     0.886460000000     0.0540839  
H782     H      0.772060000000     0.056260000000     0.893370000000     0.0391702  
H783     H      0.643260000000     0.501010000000     0.853060000000     0.0429621  
H784     H      0.722990000000     0.615600000000     0.956450000000     0.0541931  
H785     H      0.746180000000     0.511430000000     0.876170000000     0.0383729  
H786     H      0.702510000000     0.499310000000     0.847780000000     0.0383812  
H787     H      0.655290000000     0.527930000000     0.826890000000     0.0510464  
H788     H      0.762890000000     0.532780000000     0.925620000000     0.0528848  
H789     H      0.627410000000     0.606980000000     0.921730000000     0.0379812  
H790     H      0.612630000000     0.539530000000     0.900890000000     0.0449988  
H791     H      0.672750000000     0.625300000000     0.943450000000     0.0377394  
H792     H      0.748320000000     0.110390000000     0.909320000000     0.0382317  
H793     H      0.679330000000     0.086540000000     0.572450000000     0.0526168  
H794     H      0.626240000000     0.125840000000     0.719880000000     0.0410065  
H795     H      0.739350000000     0.631740000000     0.640390000000     0.0531497  
H796     H      0.577130000000     0.578590000000     0.668420000000     0.0519305  
H797     H      0.685950000000     0.097480000000     0.726510000000     0.0392694  
H798     H      0.724200000000     0.626970000000     0.690700000000     0.0383518  
H799     H      0.739600000000     0.096960000000     0.639610000000     0.0528588  
H800     H      0.643690000000     0.572280000000     0.729260000000     0.0521875  
H801     H      0.623650000000     0.614850000000     0.584320000000     0.0386352  
H802     H      0.677200000000     0.613510000000     0.572450000000     0.0549258  
H803     H      0.587610000000     0.090230000000     0.617620000000     0.0403406  
H804     H      0.585840000000     0.123010000000     0.675850000000     0.044289   
H805     H      0.826430000000     0.091920000000     0.656950000000     0.0521278  
H806     H      0.944370000000     0.500930000000     0.740000000000     0.0523706  
H807     H      0.822230000000     0.505920000000     0.658700000000     0.0397952  
H808     H      0.891970000000     0.053680000000     0.783990000000     0.0385486  
H809     H      0.917050000000     0.473680000000     0.701880000000     0.0365648  
H810     H      0.882090000000     0.476730000000     0.661980000000     0.0367479  
H811     H      0.850350000000     0.508910000000     0.632280000000     0.0541108  
H812     H      0.913740000000     0.498870000000     0.764060000000     0.0370777  
H813     H      0.833020000000     0.108140000000     0.707900000000     0.0381754  
H814     H      0.808830000000     0.058130000000     0.669930000000     0.041974   
H815     H      0.864060000000     0.106780000000     0.751040000000     0.0382234  
H816     H      0.910340000000     0.087930000000     0.772970000000     0.0534961  
H817     H      0.020410000000     0.303720000000     0.895640000000     0.0531887  
H818     H      0.093000000000     0.155250000000     0.834600000000     0.0540788  
H819     H      0.604810000000     0.294070000000     0.904390000000     0.0387805  
H820     H      0.056040000000     0.211940000000     0.781680000000     0.0408948  
H821     H      0.623480000000     0.183620000000     0.875480000000     0.0379568  
H822     H      0.625520000000     0.225590000000     0.910620000000     0.0387967  
H823     H      0.601370000000     0.268630000000     0.934310000000     0.052441   
H824     H      0.603450000000     0.180640000000     0.813910000000     0.0396948  
H825     H      0.007330000000     0.291700000000     0.844070000000     0.0389157  
H826     H      0.557130000000     0.319570000000     0.883190000000     0.0408851  
H827     H      0.007330000000     0.252310000000     0.806210000000     0.0384875  
H828     H      0.020600000000     0.199450000000     0.792630000000     0.0522408  
H829     H      0.983910000000     0.493370000000     0.839370000000     0.0500892  
H830     H      0.513530000000     0.450530000000     0.977300000000     0.043717   
H831     H      0.556580000000     0.429260000000     0.837650000000     0.041821   
H832     H      0.962620000000     0.386440000000     0.941990000000     0.0541638  
H833     H      0.577520000000     0.440090000000     0.947460000000     0.0385018  
H834     H      0.591870000000     0.449150000000     0.896800000000     0.0394467  
H835     H      0.578460000000     0.462110000000     0.847110000000     0.0493156  
H836     H      0.541460000000     0.422130000000     0.982130000000     0.0510275  
H837     H      0.946320000000     0.451520000000     0.859230000000     0.0379929  
H838     H      0.991750000000     0.458680000000     0.820470000000     0.0376776  
H839     H      0.935980000000     0.424270000000     0.904710000000     0.0393295  
H840     H      0.957540000000     0.421660000000     0.960560000000     0.0431646  
H841     H      0.997460000000     0.438390000000     0.747020000000     0.0408939  
H842     H      0.046710000000     0.320680000000     0.659090000000     0.0424157  
H843     H      0.581470000000     0.444110000000     0.737980000000     0.0521925  
H844     H      0.988040000000     0.368740000000     0.616860000000     0.0566275  
H845     H      0.596420000000     0.352290000000     0.684630000000     0.0397022  
H846     H      0.599870000000     0.391840000000     0.722150000000     0.0392173  
H847     H      0.557550000000     0.422060000000     0.760220000000     0.0430021  
H848     H      0.572640000000     0.334910000000     0.639330000000     0.0529833  
H849     H      0.960600000000     0.435330000000     0.692030000000     0.0362391  
H850     H      0.491310000000     0.466180000000     0.725700000000     0.053799   
H851     H      0.958710000000     0.397060000000     0.653440000000     0.0358508  
H852     H      0.988360000000     0.338960000000     0.643320000000     0.0399918  
H853     H      0.437100000000     0.151790000000     0.696660000000     0.042852   
H854     H      0.974000000000     0.202240000000     0.560010000000     0.0465162  
H855     H      0.985150000000     0.089310000000     0.659920000000     0.0556651  
H856     H      0.510080000000     0.258860000000     0.618520000000     0.0540521  
H857     H      0.996570000000     0.135660000000     0.567910000000     0.0391624  
H858     H      0.985350000000     0.098590000000     0.606110000000     0.0397199  
H859     H      0.947930000000     0.100890000000     0.658570000000     0.0450018  
H860     H      0.010210000000     0.187470000000     0.554500000000     0.0524027  
H861     H      0.463130000000     0.217790000000     0.701250000000     0.0387416  
H862     H      0.465640000000     0.165770000000     0.719370000000     0.053664   
H863     H      0.476880000000     0.254430000000     0.663500000000     0.0372986  
H864     H      0.474700000000     0.258230000000     0.603080000000     0.0396222  
H865     H      0.864870000000     0.962120000000     0.578330000000     0.0550542  
H866     H      0.912550000000     0.812620000000     0.500030000000     0.0536472  
H867     H      0.806640000000     0.917320000000     0.029200000000     0.0407919  
H868     H      0.911860000000     0.815620000000     0.582280000000     0.0370382  
H869     H      0.866080000000     0.835270000000     0.481800000000     0.0381845  
H870     H      0.834390000000     0.880390000000     0.481320000000     0.0382415  
H871     H      0.828300000000     0.934070000000     0.498350000000     0.0517215  
H872     H      0.893270000000     0.798820000000     0.531430000000     0.0379993  
H873     H      0.889380000000     0.924840000000     0.610700000000     0.0366063  
H874     H      0.830490000000     0.936860000000     0.084410000000     0.0398324  
H875     H      0.920010000000     0.879030000000     0.611920000000     0.03629    
H876     H      0.944330000000     0.837970000000     0.584800000000     0.0522918  
H877     H      0.854520000000     0.676610000000     0.069660000000     0.054478   
H878     H      0.967090000000     0.675990000000     0.450930000000     0.0402677  
H879     H      0.924370000000     0.632890000000     0.086960000000     0.0422934  
H880     H      0.931470000000     0.751780000000     0.468520000000     0.0544931  
H881     H      0.987070000000     0.632670000000     0.498660000000     0.0380501  
H882     H      0.960850000000     0.606630000000     0.037570000000     0.0371943  
H883     H      0.914930000000     0.600820000000     0.064860000000     0.0542327  
H884     H      0.998070000000     0.682320000000     0.473950000000     0.0542467  
H885     H      0.863850000000     0.723270000000     0.041360000000     0.0385317  
H886     H      0.888130000000     0.679490000000     0.089190000000     0.0417517  
H887     H      0.887560000000     0.747000000000     0.498350000000     0.0372387  
H888     H      0.926840000000     0.716260000000     0.449510000000     0.0410252  
H889     H      0.640680000000     0.846490000000     0.545220000000     0.0526709  
H890     H      0.690340000000     0.999030000000     0.064500000000     0.0430829  
H891     H      0.598680000000     0.904710000000     0.493990000000     0.0415579  
H892     H      0.744930000000     0.948780000000     0.518300000000     0.0537923  
H893     H      0.632110000000     0.006270000000     0.031110000000     0.0397039  
H894     H      0.594290000000     0.968030000000     0.523940000000     0.0389656  
H895     H      0.578720000000     0.915630000000     0.026410000000     0.0546221  
H896     H      0.683360000000     0.018820000000     0.532130000000     0.054007   
H897     H      0.694590000000     0.855070000000     0.531100000000     0.0387536  
H898     H      0.638790000000     0.850840000000     0.506950000000     0.0434489  
H899     H      0.733250000000     0.893510000000     0.534260000000     0.0375301  
H900     H      0.739950000000     0.953030000000     0.055020000000     0.0428631  
H901     H      0.771450000000     0.696270000000     0.070030000000     0.052712   
H902     H      0.617350000000     0.673760000000     0.541000000000     0.0407289  
H903     H      0.753520000000     0.705750000000     0.491600000000     0.0368871  
H904     H      0.634800000000     0.748630000000     0.083070000000     0.0532291  
H905     H      0.646990000000     0.673730000000     0.479340000000     0.0372816  
H906     H      0.698730000000     0.669250000000     0.467250000000     0.0363099  
H907     H      0.749160000000     0.665630000000     0.484460000000     0.0495413  
H908     H      0.609110000000     0.696020000000     0.509260000000     0.0535812  
H909     H      0.735020000000     0.727460000000     0.097620000000     0.0384719  
H910     H      0.769890000000     0.723340000000     0.040810000000     0.0383006  
H911     H      0.683390000000     0.737200000000     0.107220000000     0.0384148  
H912     H      0.629110000000     0.708830000000     0.089430000000     0.0412206  
H913     H      0.911980000000     0.061420000000     0.493550000000     0.0560939  
H914     H      0.934750000000     0.649940000000     0.360320000000     0.0426028  
H915     H      0.874660000000     0.023690000000     0.425210000000     0.0439567  
H916     H      0.001690000000     0.610740000000     0.394580000000     0.0530639  
H917     H      0.880070000000     0.609310000000     0.351930000000     0.0372853  
H918     H      0.854370000000     0.071390000000     0.380390000000     0.0376495  
H919     H      0.846020000000     0.051110000000     0.428960000000     0.0531247  
H920     H      0.930080000000     0.618870000000     0.334930000000     0.0523181  
H921     H      0.963660000000     0.072520000000     0.478560000000     0.0385353  
H922     H      0.917890000000     0.028210000000     0.471960000000     0.044238   
H923     H      0.992160000000     0.601710000000     0.446680000000     0.0389363  
H924     H      0.980570000000     0.644860000000     0.397010000000     0.0410431  
H925     H      0.608180000000     0.088710000000     0.379130000000     0.0535508  
H926     H      0.770240000000     0.568370000000     0.403250000000     0.0391622  
H927     H      0.637160000000     0.005560000000     0.350580000000     0.0434936  
H928     H      0.734300000000     0.113270000000     0.445740000000     0.053167   
H929     H      0.741300000000     0.002640000000     0.369920000000     0.0386841  
H930     H      0.695470000000     0.995200000000     0.343570000000     0.0376407  
H931     H      0.651600000000     0.028680000000     0.322460000000     0.0512566  
H932     H      0.763320000000     0.024220000000     0.416920000000     0.052129   
H933     H      0.637160000000     0.116100000000     0.414130000000     0.0386465  
H934     H      0.612370000000     0.052270000000     0.396300000000     0.0456765  
H935     H      0.684950000000     0.128550000000     0.434120000000     0.0380729  
H936     H      0.738830000000     0.617820000000     0.420490000000     0.0381251  
H937     H      0.677460000000     0.653030000000     0.086740000000     0.0439096  
H938     H      0.629600000000     0.610540000000     0.233190000000     0.0438295  
H939     H      0.730920000000     0.057440000000     0.137960000000     0.0440391  
H940     H      0.571510000000     0.085570000000     0.167790000000     0.0538546  
H941     H      0.689480000000     0.608610000000     0.225720000000     0.0385267  
H942     H      0.725300000000     0.089750000000     0.191340000000     0.0378582  
H943     H      0.714410000000     0.663110000000     0.132020000000     0.0412373  
H944     H      0.634090000000     0.090700000000     0.236920000000     0.0530165  
H945     H      0.627200000000     0.080280000000     0.082470000000     0.0386737  
H946     H      0.684130000000     0.049940000000     0.088560000000     0.044002   
H947     H      0.587560000000     0.601170000000     0.120350000000     0.038492   
H948     H      0.582350000000     0.616010000000     0.183730000000     0.0446391  
H949     H      0.819520000000     0.595010000000     0.165740000000     0.0515832  
H950     H      0.945700000000     0.000170000000     0.245490000000     0.0516827  
H951     H      0.837550000000     0.001100000000     0.146160000000     0.0408934  
H952     H      0.894400000000     0.550600000000     0.285890000000     0.0389749  
H953     H      0.923430000000     0.972840000000     0.204450000000     0.0363996  
H954     H      0.893800000000     0.975310000000     0.160420000000     0.0366694  
H955     H      0.869320000000     0.011240000000     0.126010000000     0.0545996  
H956     H      0.912670000000     0.000500000000     0.265860000000     0.0368698  
H957     H      0.829600000000     0.609270000000     0.217290000000     0.0379618  
H958     H      0.800880000000     0.562330000000     0.179890000000     0.0418754  
H959     H      0.864330000000     0.605920000000     0.257450000000     0.0382305  
H960     H      0.911410000000     0.585660000000     0.275080000000     0.0540141  
H961     H      0.025000000000     0.801650000000     0.396940000000     0.053168   
H962     H      0.092170000000     0.648770000000     0.340030000000     0.0542769  
H963     H      0.613930000000     0.780540000000     0.415250000000     0.038728   
H964     H      0.059840000000     0.706810000000     0.285080000000     0.0409407  
H965     H      0.622240000000     0.666060000000     0.395210000000     0.0373751  
H966     H      0.626510000000     0.710220000000     0.427700000000     0.038817   
H967     H      0.605960000000     0.758030000000     0.446380000000     0.0526873  
H968     H      0.607960000000     0.658460000000     0.334160000000     0.0411455  
H969     H      0.012950000000     0.789580000000     0.345150000000     0.0390587  
H970     H      0.571660000000     0.809510000000     0.389260000000     0.0404043  
H971     H      0.012320000000     0.749760000000     0.307720000000     0.0385759  
H972     H      0.023590000000     0.696180000000     0.295070000000     0.052024   
H973     H      0.984690000000     0.000500000000     0.347270000000     0.0516802  
H974     H      0.514440000000     0.943850000000     0.480090000000     0.0445648  
H975     H      0.550660000000     0.943370000000     0.337920000000     0.0439797  
H976     H      0.964950000000     0.883360000000     0.439960000000     0.0538363  
H977     H      0.577500000000     0.938460000000     0.446660000000     0.0381487  
H978     H      0.589510000000     0.955190000000     0.397100000000     0.0394179  
H979     H      0.573930000000     0.974100000000     0.349860000000     0.0490568  
H980     H      0.543000000000     0.915590000000     0.480020000000     0.04994    
H981     H      0.945900000000     0.956200000000     0.363170000000     0.0379428  
H982     H      0.989290000000     0.967630000000     0.324680000000     0.0380193  
H983     H      0.936090000000     0.925080000000     0.406540000000     0.0391422  
H984     H      0.957210000000     0.916350000000     0.461050000000     0.0429902  
H985     H      0.996220000000     0.940640000000     0.245600000000     0.041175   
H986     H      0.047570000000     0.820370000000     0.160740000000     0.0426808  
H987     H      0.579130000000     0.950220000000     0.236890000000     0.0513081  
H988     H      0.988720000000     0.867120000000     0.117380000000     0.0565029  
H989     H      0.595530000000     0.856640000000     0.186510000000     0.0393325  
H990     H      0.598190000000     0.897490000000     0.222840000000     0.039016   
H991     H      0.555310000000     0.928500000000     0.259480000000     0.0432179  
H992     H      0.572390000000     0.837600000000     0.141270000000     0.0522604  
H993     H      0.960900000000     0.936020000000     0.190330000000     0.0360148  
H994     H      0.489230000000     0.971190000000     0.222320000000     0.0544987  
H995     H      0.959370000000     0.896800000000     0.152660000000     0.035925   
H996     H      0.989220000000     0.838180000000     0.144650000000     0.040087   
H997     H      0.495990000000     0.672270000000     0.222330000000     0.0531237  
H998     H      0.973920000000     0.699450000000     0.061220000000     0.0471029  
H999     H      0.984150000000     0.586580000000     0.160820000000     0.0556887  
H1000    H      0.492610000000     0.774300000000     0.115340000000     0.0520288  
H1001    H      0.999070000000     0.633250000000     0.069750000000     0.0390488  
H1002    H      0.987300000000     0.596150000000     0.107730000000     0.0397568  
H1003    H      0.947190000000     0.599130000000     0.159300000000     0.0448423  
H1004    H      0.010340000000     0.685200000000     0.055820000000     0.0528768  
H1005    H      0.503720000000     0.727520000000     0.206530000000     0.0379332  
H1006    H      0.532860000000     0.671680000000     0.209930000000     0.0437016  
H1007    H      0.491720000000     0.763810000000     0.167950000000     0.0383329  
H1008    H      0.457900000000     0.756440000000     0.110920000000     0.037861   
H1009    H      0.861010000000     0.961600000000     0.080640000000     0.0542938  
H1010    H      0.912950000000     0.813700000000     0.000110000000     0.0538562  
H1011    H      0.808030000000     0.918740000000     0.528560000000     0.0415681  
H1012    H      0.912870000000     0.816640000000     0.082530000000     0.0371434  
H1013    H      0.866250000000     0.835580000000     0.982000000000     0.0382583  
H1014    H      0.833650000000     0.879980000000     0.981750000000     0.0381012  
H1015    H      0.825720000000     0.933310000000     0.999040000000     0.0511128  
H1016    H      0.894060000000     0.799450000000     0.031550000000     0.0381682  
H1017    H      0.887990000000     0.925040000000     0.111240000000     0.0365247  
H1018    H      0.832880000000     0.939070000000     0.583940000000     0.0405191  
H1019    H      0.919820000000     0.880140000000     0.112020000000     0.0363573  
H1020    H      0.944840000000     0.839790000000     0.084640000000     0.0525132  
H1021    H      0.853870000000     0.677170000000     0.568800000000     0.0543215  
H1022    H      0.967350000000     0.676250000000     0.951240000000     0.0401524  
H1023    H      0.923880000000     0.634210000000     0.586980000000     0.0423158  
H1024    H      0.931650000000     0.751880000000     0.969500000000     0.0543652  
H1025    H      0.987290000000     0.632450000000     0.998480000000     0.0376706  
H1026    H      0.960540000000     0.607230000000     0.537910000000     0.037113   
H1027    H      0.914730000000     0.601700000000     0.565340000000     0.0542295  
H1028    H      0.998330000000     0.682430000000     0.974310000000     0.0542113  
H1029    H      0.863310000000     0.723690000000     0.540250000000     0.0383368  
H1030    H      0.887310000000     0.680500000000     0.588560000000     0.0416936  
H1031    H      0.887940000000     0.746920000000     0.999550000000     0.0369024  
H1032    H      0.926960000000     0.716500000000     0.950280000000     0.0410137  
H1033    H      0.640650000000     0.846560000000     0.044770000000     0.0529307  
H1034    H      0.691250000000     0.999040000000     0.565600000000     0.042875   
H1035    H      0.597400000000     0.904130000000     0.994030000000     0.0413356  
H1036    H      0.744540000000     0.948850000000     0.017000000000     0.0533604  
H1037    H      0.632170000000     0.005950000000     0.533820000000     0.039634   
H1038    H      0.594210000000     0.968240000000     0.021710000000     0.0387711  
H1039    H      0.578690000000     0.915300000000     0.525680000000     0.0546416  
H1040    H      0.683360000000     0.019320000000     0.031280000000     0.0537147  
H1041    H      0.694200000000     0.855190000000     0.031870000000     0.038872   
H1042    H      0.638070000000     0.851600000000     0.006320000000     0.0434417  
H1043    H      0.732870000000     0.893630000000     0.034740000000     0.0374166  
H1044    H      0.739160000000     0.953410000000     0.556760000000     0.0427139  
H1045    H      0.770350000000     0.696150000000     0.570870000000     0.0528016  
H1046    H      0.617360000000     0.674930000000     0.038380000000     0.0410779  
H1047    H      0.755180000000     0.705160000000     0.990530000000     0.0364766  
H1048    H      0.633510000000     0.747780000000     0.584780000000     0.0533083  
H1049    H      0.648410000000     0.674040000000     0.977870000000     0.0370768  
H1050    H      0.700190000000     0.668890000000     0.966240000000     0.0363353  
H1051    H      0.750700000000     0.665270000000     0.983720000000     0.0488944  
H1052    H      0.610960000000     0.698200000000     0.006890000000     0.0537038  
H1053    H      0.734000000000     0.727110000000     0.598810000000     0.0384717  
H1054    H      0.768620000000     0.723470000000     0.541870000000     0.0382801  
H1055    H      0.682360000000     0.736490000000     0.608750000000     0.0384365  
H1056    H      0.628210000000     0.707940000000     0.591240000000     0.0412218  
H1057    H      0.912310000000     0.060420000000     0.993450000000     0.055996   
H1058    H      0.933440000000     0.649140000000     0.860420000000     0.0425621  
H1059    H      0.875220000000     0.023180000000     0.924900000000     0.043774   
H1060    H      0.000780000000     0.610650000000     0.894650000000     0.0530271  
H1061    H      0.879180000000     0.607900000000     0.851990000000     0.0372378  
H1062    H      0.854580000000     0.071150000000     0.880360000000     0.0376876  
H1063    H      0.846350000000     0.050330000000     0.928720000000     0.0532927  
H1064    H      0.929090000000     0.618040000000     0.835010000000     0.0523302  
H1065    H      0.963880000000     0.072040000000     0.978530000000     0.0385043  
H1066    H      0.918250000000     0.027490000000     0.971480000000     0.0440628  
H1067    H      0.991330000000     0.601550000000     0.946770000000     0.0388825  
H1068    H      0.979340000000     0.644550000000     0.897100000000     0.0409795  
H1069    H      0.608220000000     0.088800000000     0.879660000000     0.0535411  
H1070    H      0.769450000000     0.566470000000     0.904080000000     0.0393011  
H1071    H      0.637080000000     0.005620000000     0.851200000000     0.0434321  
H1072    H      0.734730000000     0.113590000000     0.945490000000     0.0531216  
H1073    H      0.741380000000     0.002890000000     0.869730000000     0.0386406  
H1074    H      0.695390000000     0.995320000000     0.843720000000     0.0376386  
H1075    H      0.651320000000     0.028590000000     0.822860000000     0.051311   
H1076    H      0.763740000000     0.024590000000     0.916480000000     0.0520116  
H1077    H      0.637380000000     0.116270000000     0.914460000000     0.0386295  
H1078    H      0.612550000000     0.052390000000     0.896860000000     0.0455648  
H1079    H      0.685280000000     0.128810000000     0.934130000000     0.0381073  
H1080    H      0.738580000000     0.616710000000     0.921010000000     0.0381587  
H1081    H      0.677170000000     0.651550000000     0.586440000000     0.0440695  
H1082    H      0.628890000000     0.610360000000     0.733270000000     0.043828   
H1083    H      0.730700000000     0.057050000000     0.638230000000     0.0438741  
H1084    H      0.571390000000     0.085740000000     0.668490000000     0.0539018  
H1085    H      0.688770000000     0.607870000000     0.725900000000     0.0385371  
H1086    H      0.725250000000     0.089080000000     0.691740000000     0.0378573  
H1087    H      0.714180000000     0.661810000000     0.632100000000     0.0414623  
H1088    H      0.634140000000     0.090170000000     0.737510000000     0.0530321  
H1089    H      0.626880000000     0.080390000000     0.583060000000     0.0386476  
H1090    H      0.683760000000     0.049720000000     0.589060000000     0.0437383  
H1091    H      0.586940000000     0.600840000000     0.620440000000     0.0385593  
H1092    H      0.581810000000     0.616050000000     0.683800000000     0.0445681  
H1093    H      0.819110000000     0.594890000000     0.665510000000     0.0515837  
H1094    H      0.945210000000     0.000740000000     0.745960000000     0.0516871  
H1095    H      0.837290000000     0.001760000000     0.646420000000     0.040898   
H1096    H      0.893610000000     0.550310000000     0.785850000000     0.0389551  
H1097    H      0.923010000000     0.973440000000     0.704870000000     0.036397   
H1098    H      0.893460000000     0.975950000000     0.660790000000     0.0367064  
H1099    H      0.869100000000     0.011910000000     0.626320000000     0.0545628  
H1100    H      0.912130000000     0.001180000000     0.766260000000     0.0368929  
H1101    H      0.828980000000     0.609020000000     0.717110000000     0.0379529  
H1102    H      0.800530000000     0.562080000000     0.679460000000     0.041844   
H1103    H      0.863540000000     0.605640000000     0.757420000000     0.0382409  
H1104    H      0.910600000000     0.585430000000     0.775180000000     0.0540385  
H1105    H      0.024490000000     0.801850000000     0.896940000000     0.0531842  
H1106    H      0.091560000000     0.649180000000     0.839470000000     0.0542064  
H1107    H      0.612830000000     0.782010000000     0.913730000000     0.0386221  
H1108    H      0.058570000000     0.707080000000     0.784790000000     0.040991   
H1109    H      0.621280000000     0.667360000000     0.894350000000     0.0373273  
H1110    H      0.625980000000     0.711790000000     0.926440000000     0.0388989  
H1111    H      0.605620000000     0.759690000000     0.945170000000     0.0525217  
H1112    H      0.605990000000     0.659060000000     0.833780000000     0.041193   
H1113    H      0.012000000000     0.789740000000     0.845270000000     0.0390514  
H1114    H      0.570020000000     0.810530000000     0.888430000000     0.0403671  
H1115    H      0.011150000000     0.749910000000     0.807850000000     0.0385806  
H1116    H      0.022440000000     0.696350000000     0.795130000000     0.0520203  
H1117    H      0.984660000000     0.001190000000     0.847870000000     0.0517875  
H1118    H      0.513640000000     0.944310000000     0.980850000000     0.0444041  
H1119    H      0.550480000000     0.943470000000     0.838830000000     0.0440282  
H1120    H      0.965400000000     0.883690000000     0.940240000000     0.0538577  
H1121    H      0.576890000000     0.939020000000     0.947690000000     0.0380487  
H1122    H      0.589070000000     0.955600000000     0.898130000000     0.0393876  
H1123    H      0.573640000000     0.974310000000     0.850750000000     0.0490016  
H1124    H      0.542310000000     0.916180000000     0.980990000000     0.0499143  
H1125    H      0.945820000000     0.957010000000     0.863980000000     0.0379395  
H1126    H      0.988880000000     0.968390000000     0.825110000000     0.0380393  
H1127    H      0.936310000000     0.925740000000     0.907320000000     0.0391397  
H1128    H      0.957870000000     0.916580000000     0.961540000000     0.0429909  
H1129    H      0.995760000000     0.941160000000     0.745480000000     0.0412293  
H1130    H      0.047010000000     0.820950000000     0.660630000000     0.0427396  
H1131    H      0.578630000000     0.950390000000     0.737430000000     0.0513184  
H1132    H      0.988340000000     0.867900000000     0.617130000000     0.0566096  
H1133    H      0.595000000000     0.857020000000     0.686690000000     0.0393177  
H1134    H      0.597580000000     0.897640000000     0.723260000000     0.0389942  
H1135    H      0.554610000000     0.928610000000     0.759760000000     0.0431507  
H1136    H      0.572110000000     0.838320000000     0.641220000000     0.0522148  
H1137    H      0.960470000000     0.936730000000     0.690150000000     0.0360132  
H1138    H      0.488850000000     0.971730000000     0.722510000000     0.0545169  
H1139    H      0.958940000000     0.897550000000     0.652430000000     0.0359698  
H1140    H      0.988620000000     0.838920000000     0.644370000000     0.0401945  
H1141    H      0.495090000000     0.672740000000     0.722890000000     0.0531294  
H1142    H      0.973100000000     0.699550000000     0.561450000000     0.0470044  
H1143    H      0.983080000000     0.586670000000     0.660980000000     0.0557946  
H1144    H      0.492780000000     0.775100000000     0.616070000000     0.0521245  
H1145    H      0.998510000000     0.633390000000     0.570030000000     0.038986   
H1146    H      0.986620000000     0.596290000000     0.607970000000     0.0398253  
H1147    H      0.946190000000     0.599400000000     0.659410000000     0.0449116  
H1148    H      0.009520000000     0.685330000000     0.556020000000     0.0529111  
H1149    H      0.503340000000     0.728110000000     0.707280000000     0.0379268  
H1150    H      0.532060000000     0.672140000000     0.710770000000     0.0436978  
H1151    H      0.491600000000     0.764580000000     0.668750000000     0.0382985  
H1152    H      0.457820000000     0.757760000000     0.611800000000     0.0378121  
N1       N      0.430480000000     0.332700000000     0.540050000000    -0.160322   
N2       N      0.336550000000     0.458100000000     0.544660000000    -0.160152   
N3       N      0.467880000000     0.223540000000     0.468190000000    -0.160987   
N4       N      0.383320000000     0.131230000000     0.057610000000    -0.160149   
N5       N      0.212970000000     0.495620000000     0.546160000000    -0.161865   
N6       N      0.105940000000     0.383470000000     0.032520000000    -0.16122    
N7       N      0.124820000000     0.231370000000     0.035630000000    -0.160805   
N8       N      0.265850000000     0.171560000000     0.022850000000    -0.160999   
N9       N      0.469640000000     0.120300000000     0.362970000000    -0.160719   
N10      N      0.369340000000     0.557970000000     0.472180000000    -0.160015   
N11      N      0.243650000000     0.572760000000     0.441880000000    -0.159793   
N12      N      0.120290000000     0.551220000000     0.352500000000    -0.1607     
N13      N      0.099530000000     0.587200000000     0.202160000000    -0.161868   
N14      N      0.213480000000     0.088310000000     0.101990000000    -0.161096   
N15      N      0.431340000000     0.047280000000     0.260080000000    -0.1605     
N16      N      0.341420000000     0.051370000000     0.138380000000    -0.160454   
N17      N      0.558410000000     0.173690000000     0.314200000000    -0.161739   
N18      N      0.560660000000     0.288110000000     0.417970000000    -0.162402   
N19      N      0.498240000000     0.405050000000     0.467720000000    -0.160821   
N20      N      0.029490000000     0.481290000000     0.336150000000    -0.163215   
N21      N      0.030710000000     0.347150000000     0.125650000000    -0.159116   
N22      N      0.036150000000     0.461270000000     0.233150000000    -0.159034   
N23      N      0.008870000000     0.226990000000     0.081340000000    -0.163935   
N24      N      0.475370000000     0.124950000000     0.192560000000    -0.160319   
N25      N      0.431590000000     0.333490000000     0.040910000000    -0.160181   
N26      N      0.334610000000     0.456600000000     0.046500000000    -0.16032    
N27      N      0.468950000000     0.223620000000     0.969110000000    -0.160978   
N28      N      0.382450000000     0.132650000000     0.558130000000    -0.160286   
N29      N      0.213680000000     0.496210000000     0.052410000000    -0.162      
N30      N      0.104700000000     0.382550000000     0.529040000000    -0.161281   
N31      N      0.122520000000     0.230250000000     0.536760000000    -0.160821   
N32      N      0.263900000000     0.171670000000     0.523600000000    -0.161088   
N33      N      0.469060000000     0.119490000000     0.863830000000    -0.160736   
N34      N      0.368610000000     0.554300000000     0.972120000000    -0.159835   
N35      N      0.242910000000     0.571140000000     0.942600000000    -0.159724   
N36      N      0.119770000000     0.551610000000     0.852330000000    -0.160715   
N37      N      0.098740000000     0.587380000000     0.702070000000    -0.161895   
N38      N      0.213090000000     0.087210000000     0.601980000000    -0.161091   
N39      N      0.431010000000     0.047900000000     0.760210000000    -0.160543   
N40      N      0.341090000000     0.051990000000     0.638460000000    -0.16051    
N41      N      0.558030000000     0.173800000000     0.815420000000    -0.161649   
N42      N      0.561370000000     0.288930000000     0.918470000000    -0.162421   
N43      N      0.499550000000     0.405140000000     0.968820000000    -0.160843   
N44      N      0.029160000000     0.481530000000     0.836400000000    -0.163177   
N45      N      0.029770000000     0.347880000000     0.625090000000    -0.159143   
N46      N      0.035420000000     0.461480000000     0.733120000000    -0.158977   
N47      N      0.007260000000     0.227300000000     0.581290000000    -0.163909   
N48      N      0.475840000000     0.125920000000     0.693370000000    -0.160304   
N49      N      0.430760000000     0.824700000000     0.540270000000    -0.160424   
N50      N      0.340210000000     0.952190000000     0.538990000000    -0.160373   
N51      N      0.466120000000     0.719760000000     0.471710000000    -0.160597   
N52      N      0.379460000000     0.634260000000     0.065480000000    -0.159802   
N53      N      0.218080000000     0.989260000000     0.531710000000    -0.161439   
N54      N      0.106710000000     0.878290000000     0.029730000000    -0.161354   
N55      N      0.121330000000     0.724740000000     0.042220000000    -0.160981   
N56      N      0.264980000000     0.676680000000     0.024710000000    -0.160753   
N57      N      0.469240000000     0.605890000000     0.364650000000    -0.16059    
N58      N      0.377420000000     0.048890000000     0.463590000000    -0.160518   
N59      N      0.251000000000     0.069500000000     0.432970000000    -0.15984    
N60      N      0.122020000000     0.052500000000     0.350460000000    -0.160304   
N61      N      0.098470000000     0.090970000000     0.204140000000    -0.162731   
N62      N      0.207720000000     0.626880000000     0.100800000000    -0.159936   
N63      N      0.434930000000     0.548300000000     0.253890000000    -0.160137   
N64      N      0.327610000000     0.552220000000     0.147420000000    -0.160989   
N65      N      0.562340000000     0.660250000000     0.328670000000    -0.161385   
N66      N      0.569300000000     0.780810000000     0.426150000000    -0.162923   
N67      N      0.500850000000     0.899630000000     0.466730000000    -0.160916   
N68      N      0.028830000000     0.986460000000     0.340380000000    -0.163219   
N69      N      0.030580000000     0.846830000000     0.126260000000    -0.159044   
N70      N      0.035080000000     0.962640000000     0.232590000000    -0.158633   
N71      N      0.006720000000     0.724990000000     0.082650000000    -0.164075   
N72      N      0.507700000000     0.633520000000     0.196490000000    -0.161798   
N73      N      0.430560000000     0.825220000000     0.040650000000    -0.160387   
N74      N      0.337600000000     0.951020000000     0.040310000000    -0.1606     
N75      N      0.466130000000     0.719810000000     0.971860000000    -0.160689   
N76      N      0.378930000000     0.635710000000     0.565980000000    -0.159927   
N77      N      0.218440000000     0.989600000000     0.035110000000    -0.161558   
N78      N      0.106110000000     0.877790000000     0.528450000000    -0.161417   
N79      N      0.119680000000     0.723600000000     0.543870000000    -0.161132   
N80      N      0.263520000000     0.677370000000     0.525220000000    -0.160825   
N81      N      0.467290000000     0.604780000000     0.864710000000    -0.160597   
N82      N      0.377200000000     0.046300000000     0.963450000000    -0.160528   
N83      N      0.250800000000     0.069100000000     0.933100000000    -0.159966   
N84      N      0.121850000000     0.052900000000     0.850340000000    -0.160296   
N85      N      0.097940000000     0.091120000000     0.703840000000    -0.162715   
N86      N      0.207130000000     0.626240000000     0.600610000000    -0.159893   
N87      N      0.433820000000     0.548030000000     0.753670000000    -0.160103   
N88      N      0.326710000000     0.552290000000     0.647060000000    -0.161029   
N89      N      0.560310000000     0.660820000000     0.828810000000    -0.161275   
N90      N      0.568420000000     0.782020000000     0.925490000000    -0.162845   
N91      N      0.500280000000     0.900020000000     0.967500000000    -0.160852   
N92      N      0.028660000000     0.986950000000     0.840480000000    -0.1632     
N93      N      0.030080000000     0.847400000000     0.626110000000    -0.159049   
N94      N      0.034630000000     0.963180000000     0.732520000000    -0.158586   
N95      N      0.005890000000     0.725130000000     0.582850000000    -0.164085   
N96      N      0.506930000000     0.634100000000     0.696970000000    -0.16174    
N97      N      0.929880000000     0.331030000000     0.540230000000    -0.160323   
N98      N      0.840030000000     0.459580000000     0.544130000000    -0.160103   
N99      N      0.967430000000     0.221720000000     0.468420000000    -0.161092   
N100     N      0.883390000000     0.130690000000     0.059340000000    -0.160229   
N101     N      0.716630000000     0.494410000000     0.542170000000    -0.161609   
N102     N      0.607230000000     0.382810000000     0.033710000000    -0.161087   
N103     N      0.624520000000     0.230870000000     0.036900000000    -0.160808   
N104     N      0.765260000000     0.170040000000     0.024480000000    -0.160945   
N105     N      0.968930000000     0.120740000000     0.361480000000    -0.16106    
N106     N      0.871850000000     0.563180000000     0.470940000000    -0.159979   
N107     N      0.747290000000     0.576140000000     0.442450000000    -0.159904   
N108     N      0.624140000000     0.544060000000     0.356540000000    -0.161033   
N109     N      0.605640000000     0.581130000000     0.205530000000    -0.161524   
N110     N      0.714370000000     0.083340000000     0.102740000000    -0.161009   
N111     N      0.931140000000     0.044500000000     0.260220000000    -0.160512   
N112     N      0.841690000000     0.048760000000     0.138440000000    -0.160347   
N113     N      0.057010000000     0.174040000000     0.310800000000    -0.161866   
N114     N      0.058390000000     0.286350000000     0.416570000000    -0.16236    
N115     N      0.998400000000     0.403200000000     0.465170000000    -0.157793   
N116     N      0.534850000000     0.470790000000     0.334640000000    -0.163018   
N117     N      0.529790000000     0.344830000000     0.127640000000    -0.159702   
N118     N      0.537480000000     0.456880000000     0.236880000000    -0.159721   
N119     N      0.506020000000     0.229040000000     0.081320000000    -0.161339   
N120     N      0.972660000000     0.122810000000     0.191100000000    -0.160113   
N121     N      0.931150000000     0.331850000000     0.040480000000    -0.160248   
N122     N      0.839000000000     0.458960000000     0.045260000000    -0.160306   
N123     N      0.968570000000     0.221740000000     0.969370000000    -0.161529   
N124     N      0.882680000000     0.131600000000     0.559510000000    -0.160368   
N125     N      0.717770000000     0.494460000000     0.047350000000    -0.161695   
N126     N      0.606050000000     0.382310000000     0.530180000000    -0.161192   
N127     N      0.622510000000     0.230020000000     0.537680000000    -0.160792   
N128     N      0.763470000000     0.169960000000     0.525020000000    -0.160985   
N129     N      0.968880000000     0.121220000000     0.861790000000    -0.161117   
N130     N      0.871400000000     0.561920000000     0.971050000000    -0.159884   
N131     N      0.746380000000     0.574950000000     0.943080000000    -0.159902   
N132     N      0.623120000000     0.544550000000     0.856620000000    -0.160918   
N133     N      0.604750000000     0.581010000000     0.705710000000    -0.161414   
N134     N      0.714080000000     0.083080000000     0.603140000000    -0.161035   
N135     N      0.930730000000     0.045120000000     0.760610000000    -0.160491   
N136     N      0.841430000000     0.049420000000     0.638690000000    -0.160479   
N137     N      0.056960000000     0.174500000000     0.810700000000    -0.161815   
N138     N      0.059150000000     0.286570000000     0.916660000000    -0.162248   
N139     N      0.999780000000     0.403250000000     0.965700000000    -0.157866   
N140     N      0.533890000000     0.471150000000     0.835260000000    -0.162874   
N141     N      0.528980000000     0.345980000000     0.626610000000    -0.159676   
N142     N      0.536410000000     0.457210000000     0.736750000000    -0.159683   
N143     N      0.504830000000     0.229660000000     0.581310000000    -0.161348   
N144     N      0.971910000000     0.123300000000     0.691450000000    -0.160146   
N145     N      0.931290000000     0.823990000000     0.541570000000    -0.160386   
N146     N      0.840520000000     0.951000000000     0.540050000000    -0.160439   
N147     N      0.967210000000     0.719470000000     0.471310000000    -0.160748   
N148     N      0.882450000000     0.636650000000     0.068640000000    -0.160393   
N149     N      0.718860000000     0.987140000000     0.530610000000    -0.161378   
N150     N      0.606380000000     0.876090000000     0.030410000000    -0.161099   
N151     N      0.618000000000     0.722640000000     0.046870000000    -0.161      
N152     N      0.762600000000     0.677540000000     0.027480000000    -0.160854   
N153     N      0.967970000000     0.616460000000     0.362180000000    -0.160787   
N154     N      0.877670000000     0.049940000000     0.463540000000    -0.160405   
N155     N      0.752170000000     0.069020000000     0.433400000000    -0.159942   
N156     N      0.622800000000     0.051720000000     0.351750000000    -0.160403   
N157     N      0.599780000000     0.089400000000     0.204970000000    -0.162666   
N158     N      0.711340000000     0.625490000000     0.103460000000    -0.160296   
N159     N      0.931090000000     0.543840000000     0.258990000000    -0.160161   
N160     N      0.830800000000     0.551590000000     0.146610000000    -0.160969   
N161     N      0.058230000000     0.669610000000     0.314350000000    -0.162025   
N162     N      0.062220000000     0.782710000000     0.419330000000    -0.162589   
N163     N      0.000390000000     0.900280000000     0.465940000000    -0.161143   
N164     N      0.529280000000     0.985920000000     0.341180000000    -0.162385   
N165     N      0.528660000000     0.847380000000     0.128010000000    -0.159896   
N166     N      0.533990000000     0.962740000000     0.234960000000    -0.159128   
N167     N      0.489970000000     0.738580000000     0.082820000000    -0.162697   
N168     N      0.971490000000     0.620950000000     0.192260000000    -0.160377   
N169     N      0.931710000000     0.825260000000     0.041590000000    -0.160298   
N170     N      0.838140000000     0.950260000000     0.041060000000    -0.160552   
N171     N      0.967430000000     0.719560000000     0.971920000000    -0.160824   
N172     N      0.882020000000     0.637380000000     0.568440000000    -0.160481   
N173     N      0.718850000000     0.987420000000     0.030320000000    -0.161459   
N174     N      0.606570000000     0.875730000000     0.529780000000    -0.161265   
N175     N      0.616720000000     0.721520000000     0.548710000000    -0.160997   
N176     N      0.761370000000     0.677760000000     0.528230000000    -0.160756   
N177     N      0.967000000000     0.616030000000     0.862260000000    -0.160766   
N178     N      0.877970000000     0.049240000000     0.963350000000    -0.16041    
N179     N      0.752550000000     0.069340000000     0.933070000000    -0.160045   
N180     N      0.622730000000     0.051790000000     0.852250000000    -0.160367   
N181     N      0.599740000000     0.089270000000     0.705650000000    -0.162693   
N182     N      0.710970000000     0.624170000000     0.603580000000    -0.160181   
N183     N      0.930410000000     0.543690000000     0.759080000000    -0.16012    
N184     N      0.830640000000     0.551590000000     0.646270000000    -0.160942   
N185     N      0.057330000000     0.669900000000     0.814100000000    -0.162048   
N186     N      0.061960000000     0.783020000000     0.919000000000    -0.162575   
N187     N      0.001060000000     0.900410000000     0.966010000000    -0.161037   
N188     N      0.528990000000     0.985980000000     0.841860000000    -0.162418   
N189     N      0.528550000000     0.848350000000     0.627640000000    -0.159993   
N190     N      0.533530000000     0.963070000000     0.735310000000    -0.159097   
N191     N      0.489510000000     0.739470000000     0.583520000000    -0.162641   
N192     N      0.970530000000     0.621090000000     0.692420000000    -0.160381   
O1       O      0.500030000000     0.083760000000     0.211260000000    -0.360889   
O2       O      0.074280000000     0.566810000000     0.341120000000    -0.36679    
O3       O      0.524350000000     0.143980000000     0.291240000000    -0.368921   
O4       O      0.090540000000     0.562710000000     0.245090000000    -0.378022   
O5       O      0.054550000000     0.122460000000     0.319250000000    -0.364349   
O6       O      0.053280000000     0.071810000000     0.214600000000    -0.372773   
O7       O      0.099780000000     0.541290000000     0.307810000000    -0.357382   
O8       O      0.488290000000     0.122540000000     0.240420000000    -0.366417   
O9       O      0.522840000000     0.506720000000     0.239420000000    -0.379839   
O10      O      0.510750000000     0.582060000000     0.349600000000    -0.369782   
O11      O      0.463930000000     0.084890000000     0.272220000000    -0.36369    
O12      O      0.059880000000     0.507210000000     0.305850000000    -0.362995   
O13      O      0.022630000000     0.531870000000     0.325930000000    -0.395624   
O14      O      0.479650000000     0.043340000000     0.248950000000    -0.369454   
O15      O      0.062890000000     0.499690000000     0.254880000000    -0.362361   
O16      O      0.479780000000     0.114750000000     0.314680000000    -0.362421   
O17      O      0.040110000000     0.079690000000     0.273430000000    -0.576662   
O18      O      0.027300000000     0.237600000000     0.036400000000    -0.379234   
O19      O      0.479190000000     0.340750000000     0.546290000000    -0.374185   
O20      O      0.055820000000     0.320770000000     0.090470000000    -0.359572   
O21      O      0.479450000000     0.273610000000     0.477010000000    -0.368633   
O22      O      0.517140000000     0.347720000000     0.079720000000    -0.363873   
O23      O      0.513650000000     0.237510000000     0.986530000000    -0.365294   
O24      O      0.463780000000     0.319270000000     0.505270000000    -0.362956   
O25      O      0.036440000000     0.269750000000     0.072790000000    -0.384723   
O26      O      0.057900000000     0.271220000000     0.463890000000    -0.374288   
O27      O      0.056390000000     0.371120000000     0.532660000000    -0.359905   
O28      O      0.095240000000     0.270370000000     0.051410000000    -0.368543   
O29      O      0.491780000000     0.353460000000     0.473490000000    -0.359632   
O30      O      0.516760000000     0.379640000000     0.506600000000    -0.362736   
O31      O      0.082110000000     0.243210000000     0.012650000000    -0.371058   
O32      O      0.524300000000     0.303410000000     0.448880000000    -0.367347   
O33      O      0.090210000000     0.334890000000     0.043190000000    -0.367576   
O34      O      0.542250000000     0.310810000000     0.013080000000    -0.576924   
O35      O      0.343700000000     0.042160000000     0.089600000000    -0.36364    
O36      O      0.225990000000     0.545690000000     0.539140000000    -0.371009   
O37      O      0.261880000000     0.092520000000     0.090850000000    -0.365643   
O38      O      0.310300000000     0.494590000000     0.519890000000    -0.358111   
O39      O      0.224050000000     0.602650000000     0.059890000000    -0.36151    
O40      O      0.336490000000     0.507320000000     0.058560000000    -0.364449   
O41      O      0.257570000000     0.508770000000     0.528290000000    -0.368697   
O42      O      0.316720000000     0.081100000000     0.105470000000    -0.362064   
O43      O      0.363680000000     0.049430000000     0.511310000000    -0.373645   
O44      O      0.260940000000     0.120530000000     0.513910000000    -0.374688   
O45      O      0.335120000000     0.119370000000     0.062970000000    -0.371689   
O46      O      0.271410000000     0.545880000000     0.474820000000    -0.363339   
O47      O      0.244510000000     0.585190000000     0.489880000000    -0.370065   
O48      O      0.366360000000     0.082480000000     0.050940000000    -0.369046   
O49      O      0.322830000000     0.546590000000     0.486400000000    -0.375575   
O50      O      0.285000000000     0.135430000000     0.053550000000    -0.365438   
O51      O      0.286290000000     0.559430000000     0.053030000000    -0.580697   
O52      O      0.500100000000     0.084420000000     0.712000000000    -0.360819   
O53      O      0.073770000000     0.567260000000     0.841000000000    -0.366504   
O54      O      0.524020000000     0.144130000000     0.792340000000    -0.368908   
O55      O      0.089770000000     0.562970000000     0.745050000000    -0.377955   
O56      O      0.054450000000     0.122920000000     0.819190000000    -0.364429   
O57      O      0.052750000000     0.072080000000     0.714520000000    -0.372889   
O58      O      0.099110000000     0.541470000000     0.807750000000    -0.356892   
O59      O      0.488490000000     0.123130000000     0.741300000000    -0.366266   
O60      O      0.521730000000     0.507030000000     0.739420000000    -0.379335   
O61      O      0.509360000000     0.581970000000     0.849810000000    -0.369645   
O62      O      0.463670000000     0.085310000000     0.772710000000    -0.363463   
O63      O      0.059320000000     0.507450000000     0.805860000000    -0.362771   
O64      O      0.022180000000     0.532100000000     0.826160000000    -0.395352   
O65      O      0.479360000000     0.043810000000     0.749350000000    -0.369463   
O66      O      0.062170000000     0.499910000000     0.754830000000    -0.362203   
O67      O      0.479400000000     0.114410000000     0.815530000000    -0.362375   
O68      O      0.039770000000     0.080200000000     0.773490000000    -0.576758   
O69      O      0.025710000000     0.237720000000     0.536320000000    -0.379422   
O70      O      0.480360000000     0.341250000000     0.047140000000    -0.373404   
O71      O      0.054680000000     0.321200000000     0.589980000000    -0.360272   
O72      O      0.480480000000     0.273660000000     0.978100000000    -0.369057   
O73      O      0.516090000000     0.348320000000     0.578720000000    -0.364209   
O74      O      0.512430000000     0.237410000000     0.485970000000    -0.365378   
O75      O      0.464850000000     0.319600000000     0.006230000000    -0.362126   
O76      O      0.034920000000     0.269980000000     0.572610000000    -0.384255   
O77      O      0.059040000000     0.271380000000     0.963980000000    -0.374115   
O78      O      0.057640000000     0.371490000000     0.034450000000    -0.360014   
O79      O      0.093380000000     0.269920000000     0.551800000000    -0.368522   
O80      O      0.492760000000     0.353620000000     0.974670000000    -0.359254   
O81      O      0.518340000000     0.379570000000     0.007480000000    -0.36309    
O82      O      0.080330000000     0.242630000000     0.513090000000    -0.370911   
O83      O      0.525100000000     0.303790000000     0.949680000000    -0.367347   
O84      O      0.088880000000     0.334480000000     0.541530000000    -0.368034   
O85      O      0.541090000000     0.310760000000     0.512280000000    -0.57659    
O86      O      0.343490000000     0.042880000000     0.589680000000    -0.364078   
O87      O      0.226200000000     0.545770000000     0.042100000000    -0.370954   
O88      O      0.261420000000     0.092200000000     0.590900000000    -0.365868   
O89      O      0.309070000000     0.493110000000     0.021090000000    -0.357676   
O90      O      0.223760000000     0.602290000000     0.559660000000    -0.362233   
O91      O      0.337540000000     0.508610000000     0.557550000000    -0.365259   
O92      O      0.257330000000     0.508300000000     0.031730000000    -0.368255   
O93      O      0.316330000000     0.081670000000     0.605550000000    -0.36199    
O94      O      0.363530000000     0.047530000000     0.011180000000    -0.373696   
O95      O      0.261810000000     0.120390000000     0.013620000000    -0.374584   
O96      O      0.334330000000     0.120270000000     0.563070000000    -0.371902   
O97      O      0.270450000000     0.544230000000     0.975730000000    -0.364482   
O98      O      0.244340000000     0.584290000000     0.990420000000    -0.371478   
O99      O      0.366060000000     0.083700000000     0.551470000000    -0.368828   
O100     O      0.321970000000     0.544120000000     0.986820000000    -0.375136   
O101     O      0.283850000000     0.135680000000     0.553950000000    -0.365421   
O102     O      0.286460000000     0.560100000000     0.552450000000    -0.581933   
O103     O      0.515010000000     0.584780000000     0.213640000000    -0.35814    
O104     O      0.076580000000     0.070710000000     0.339740000000    -0.365564   
O105     O      0.529850000000     0.634640000000     0.299920000000    -0.367995   
O106     O      0.089220000000     0.065550000000     0.246460000000    -0.377822   
O107     O      0.053930000000     0.617940000000     0.321510000000    -0.364308   
O108     O      0.053980000000     0.569460000000     0.213940000000    -0.371785   
O109     O      0.099290000000     0.041430000000     0.307180000000    -0.356177   
O110     O      0.507710000000     0.622970000000     0.244920000000    -0.373123   
O111     O      0.518820000000     0.012410000000     0.236650000000    -0.373864   
O112     O      0.511280000000     0.096980000000     0.347350000000    -0.366884   
O113     O      0.468980000000     0.582450000000     0.270510000000    -0.370341   
O114     O      0.058310000000     0.009670000000     0.307340000000    -0.363631   
O115     O      0.023450000000     0.036900000000     0.328760000000    -0.393825   
O116     O      0.483620000000     0.541190000000     0.246080000000    -0.374469   
O117     O      0.061490000000     0.000730000000     0.255290000000    -0.363096   
O118     O      0.481940000000     0.603890000000     0.316650000000    -0.363852   
O119     O      0.040280000000     0.577810000000     0.273840000000    -0.580034   
O120     O      0.026330000000     0.734980000000     0.038180000000    -0.378002   
O121     O      0.479030000000     0.834900000000     0.546940000000    -0.3766     
O122     O      0.055520000000     0.819180000000     0.091790000000    -0.360191   
O123     O      0.479790000000     0.769590000000     0.478440000000    -0.365314   
O124     O      0.515870000000     0.847040000000     0.080020000000    -0.36216    
O125     O      0.510750000000     0.732510000000     0.990360000000    -0.363604   
O126     O      0.464810000000     0.813050000000     0.505650000000    -0.361809   
O127     O      0.034680000000     0.767560000000     0.074440000000    -0.38415    
O128     O      0.059850000000     0.767480000000     0.466580000000    -0.376297   
O129     O      0.057650000000     0.867510000000     0.532980000000    -0.359545   
O130     O      0.093030000000     0.765710000000     0.055650000000    -0.368271   
O131     O      0.493910000000     0.848220000000     0.473180000000    -0.362335   
O132     O      0.517440000000     0.875030000000     0.506930000000    -0.363156   
O133     O      0.080500000000     0.738310000000     0.016830000000    -0.370518   
O134     O      0.530340000000     0.797960000000     0.452800000000    -0.369635   
O135     O      0.090170000000     0.830790000000     0.043190000000    -0.368139   
O136     O      0.541130000000     0.805890000000     0.015280000000    -0.5717     
O137     O      0.332500000000     0.544580000000     0.098730000000    -0.366972   
O138     O      0.231760000000     0.039400000000     0.526900000000    -0.362148   
O139     O      0.255830000000     0.614430000000     0.094620000000    -0.360002   
O140     O      0.316000000000     0.988560000000     0.512180000000    -0.35944    
O141     O      0.230000000000     0.083730000000     0.055420000000    -0.360016   
O142     O      0.341320000000     0.002040000000     0.050720000000    -0.366086   
O143     O      0.263410000000     0.002630000000     0.515810000000    -0.366166   
O144     O      0.307610000000     0.585230000000     0.114080000000    -0.366872   
O145     O      0.356230000000     0.556820000000     0.520060000000    -0.371227   
O146     O      0.257460000000     0.625910000000     0.519350000000    -0.369192   
O147     O      0.330890000000     0.624490000000     0.071560000000    -0.368899   
O148     O      0.277780000000     0.041040000000     0.465600000000    -0.364263   
O149     O      0.252840000000     0.081620000000     0.481020000000    -0.372124   
O150     O      0.360630000000     0.586160000000     0.059870000000    -0.368385   
O151     O      0.330480000000     0.039320000000     0.477430000000    -0.378858   
O152     O      0.283190000000     0.642140000000     0.057460000000    -0.357663   
O153     O      0.293320000000     0.053390000000     0.043110000000    -0.585116   
O154     O      0.514120000000     0.585260000000     0.713890000000    -0.358179   
O155     O      0.076410000000     0.071180000000     0.839710000000    -0.365631   
O156     O      0.527940000000     0.634850000000     0.800210000000    -0.367841   
O157     O      0.088770000000     0.065980000000     0.746320000000    -0.37775    
O158     O      0.053220000000     0.618240000000     0.821360000000    -0.364447   
O159     O      0.053200000000     0.569640000000     0.713900000000    -0.371743   
O160     O      0.099000000000     0.041870000000     0.807100000000    -0.355934   
O161     O      0.506550000000     0.623240000000     0.745340000000    -0.372684   
O162     O      0.518490000000     0.012780000000     0.737160000000    -0.373957   
O163     O      0.510940000000     0.096670000000     0.848170000000    -0.366991   
O164     O      0.467640000000     0.582250000000     0.770600000000    -0.36979    
O165     O      0.058020000000     0.010160000000     0.807320000000    -0.363686   
O166     O      0.023280000000     0.037410000000     0.828900000000    -0.393784   
O167     O      0.482570000000     0.541260000000     0.745940000000    -0.373997   
O168     O      0.061080000000     0.001240000000     0.755240000000    -0.362879   
O169     O      0.480190000000     0.603080000000     0.816760000000    -0.363729   
O170     O      0.039540000000     0.578020000000     0.773840000000    -0.579826   
O171     O      0.025570000000     0.735040000000     0.538390000000    -0.378082   
O172     O      0.478880000000     0.835190000000     0.047280000000    -0.376007   
O173     O      0.054950000000     0.819480000000     0.591790000000    -0.360505   
O174     O      0.479590000000     0.769680000000     0.978790000000    -0.365854   
O175     O      0.515910000000     0.847590000000     0.579610000000    -0.362188   
O176     O      0.510580000000     0.732310000000     0.490690000000    -0.363623   
O177     O      0.464540000000     0.813360000000     0.006020000000    -0.361599   
O178     O      0.033920000000     0.767650000000     0.574620000000    -0.383638   
O179     O      0.060050000000     0.767730000000     0.966250000000    -0.376073   
O180     O      0.058230000000     0.867770000000     0.033560000000    -0.359576   
O181     O      0.091900000000     0.765240000000     0.556490000000    -0.368274   
O182     O      0.493470000000     0.848540000000     0.973700000000    -0.361956   
O183     O      0.517120000000     0.875190000000     0.007470000000    -0.362841   
O184     O      0.079510000000     0.737710000000     0.517720000000    -0.370362   
O185     O      0.529620000000     0.798590000000     0.952700000000    -0.369661   
O186     O      0.089560000000     0.830550000000     0.542730000000    -0.368509   
O187     O      0.541260000000     0.805680000000     0.515320000000    -0.571512   
O188     O      0.332100000000     0.545120000000     0.598370000000    -0.367423   
O189     O      0.231870000000     0.039560000000     0.028360000000    -0.361639   
O190     O      0.255390000000     0.614520000000     0.594380000000    -0.359861   
O191     O      0.314730000000     0.987650000000     0.012710000000    -0.358563   
O192     O      0.229720000000     0.082980000000     0.555420000000    -0.360671   
O193     O      0.342620000000     0.003120000000     0.550100000000    -0.366763   
O194     O      0.263270000000     0.002460000000     0.017560000000    -0.365607   
O195     O      0.307030000000     0.585600000000     0.613810000000    -0.367121   
O196     O      0.355750000000     0.554460000000     0.020070000000    -0.371426   
O197     O      0.258080000000     0.625270000000     0.019340000000    -0.369259   
O198     O      0.330350000000     0.625540000000     0.571430000000    -0.369077   
O199     O      0.277440000000     0.040540000000     0.965760000000    -0.365344   
O200     O      0.252810000000     0.081370000000     0.981100000000    -0.37261    
O201     O      0.360560000000     0.587450000000     0.560280000000    -0.367945   
O202     O      0.330090000000     0.037880000000     0.977420000000    -0.37924    
O203     O      0.282440000000     0.642790000000     0.557540000000    -0.357407   
O204     O      0.293340000000     0.053760000000     0.543060000000    -0.585908   
O205     O      0.998310000000     0.082390000000     0.209930000000    -0.360089   
O206     O      0.577410000000     0.557400000000     0.345570000000    -0.366372   
O207     O      0.022720000000     0.143750000000     0.288910000000    -0.369058   
O208     O      0.596300000000     0.556640000000     0.248460000000    -0.378588   
O209     O      0.555410000000     0.122000000000     0.321930000000    -0.363916   
O210     O      0.554290000000     0.071290000000     0.215750000000    -0.372566   
O211     O      0.604600000000     0.535580000000     0.311220000000    -0.360642   
O212     O      0.986100000000     0.121180000000     0.238870000000    -0.364913   
O213     O      0.019750000000     0.510440000000     0.235390000000    -0.376996   
O214     O      0.009040000000     0.592410000000     0.346150000000    -0.370349   
O215     O      0.963010000000     0.083070000000     0.271550000000    -0.363371   
O216     O      0.565720000000     0.499590000000     0.307430000000    -0.362194   
O217     O      0.526690000000     0.521660000000     0.326850000000    -0.395942   
O218     O      0.979320000000     0.041810000000     0.248220000000    -0.368456   
O219     O      0.566190000000     0.494290000000     0.257530000000    -0.363781   
O220     O      0.978690000000     0.114530000000     0.313180000000    -0.361311   
O221     O      0.541110000000     0.079760000000     0.275000000000    -0.578322   
O222     O      0.526080000000     0.238790000000     0.036890000000    -0.379289   
O223     O      0.978580000000     0.339580000000     0.545760000000    -0.373983   
O224     O      0.555440000000     0.319480000000     0.092210000000    -0.359957   
O225     O      0.978580000000     0.271960000000     0.476870000000    -0.36804    
O226     O      0.016900000000     0.348060000000     0.078010000000    -0.364418   
O227     O      0.013290000000     0.236250000000     0.986280000000    -0.367465   
O228     O      0.962820000000     0.317730000000     0.505040000000    -0.362816   
O229     O      0.535280000000     0.270660000000     0.073460000000    -0.384466   
O230     O      0.559190000000     0.272380000000     0.465080000000    -0.374215   
O231     O      0.557640000000     0.371350000000     0.534080000000    -0.36092    
O232     O      0.595280000000     0.270110000000     0.052750000000    -0.369241   
O233     O      0.990980000000     0.351900000000     0.472080000000    -0.356529   
O234     O      0.016410000000     0.378350000000     0.504640000000    -0.361229   
O235     O      0.582050000000     0.243350000000     0.013770000000    -0.371118   
O236     O      0.022520000000     0.301790000000     0.447980000000    -0.36719    
O237     O      0.591020000000     0.334380000000     0.044340000000    -0.368122   
O238     O      0.041560000000     0.310050000000     0.011730000000    -0.577876   
O239     O      0.844550000000     0.040570000000     0.089530000000    -0.362243   
O240     O      0.729460000000     0.544900000000     0.538430000000    -0.372058   
O241     O      0.762550000000     0.089170000000     0.091450000000    -0.365992   
O242     O      0.813720000000     0.496100000000     0.519540000000    -0.359096   
O243     O      0.727030000000     0.601650000000     0.062090000000    -0.361884   
O244     O      0.841220000000     0.509690000000     0.057250000000    -0.365208   
O245     O      0.761290000000     0.509050000000     0.525300000000    -0.366758   
O246     O      0.816980000000     0.078850000000     0.105840000000    -0.361553   
O247     O      0.864210000000     0.049510000000     0.511350000000    -0.374591   
O248     O      0.760870000000     0.118880000000     0.514920000000    -0.374217   
O249     O      0.835250000000     0.118230000000     0.063870000000    -0.371946   
O250     O      0.775810000000     0.549070000000     0.474510000000    -0.362827   
O251     O      0.747020000000     0.586210000000     0.490970000000    -0.368744   
O252     O      0.867050000000     0.081840000000     0.051930000000    -0.36834    
O253     O      0.826010000000     0.549760000000     0.485720000000    -0.374865   
O254     O      0.784910000000     0.133710000000     0.054640000000    -0.365941   
O255     O      0.790260000000     0.560680000000     0.052800000000    -0.582317   
O256     O      0.997700000000     0.082910000000     0.710160000000    -0.36009    
O257     O      0.576400000000     0.557980000000     0.845690000000    -0.366295   
O258     O      0.022500000000     0.144270000000     0.789010000000    -0.369039   
O259     O      0.595210000000     0.556680000000     0.748680000000    -0.378378   
O260     O      0.555130000000     0.122060000000     0.822920000000    -0.364097   
O261     O      0.554150000000     0.071460000000     0.716430000000    -0.372408   
O262     O      0.603420000000     0.535810000000     0.811400000000    -0.360286   
O263     O      0.985600000000     0.121720000000     0.739140000000    -0.364678   
O264     O      0.019000000000     0.510640000000     0.735400000000    -0.376837   
O265     O      0.008300000000     0.592440000000     0.846200000000    -0.370414   
O266     O      0.962650000000     0.083660000000     0.771860000000    -0.363224   
O267     O      0.564570000000     0.499870000000     0.807740000000    -0.362131   
O268     O      0.525680000000     0.522010000000     0.827390000000    -0.395462   
O269     O      0.978870000000     0.042370000000     0.748500000000    -0.368548   
O270     O      0.565010000000     0.494560000000     0.757670000000    -0.363692   
O271     O      0.978520000000     0.115080000000     0.813460000000    -0.361412   
O272     O      0.540900000000     0.079930000000     0.775780000000    -0.578586   
O273     O      0.524710000000     0.239080000000     0.536740000000    -0.379448   
O274     O      0.979900000000     0.340080000000     0.046080000000    -0.373528   
O275     O      0.554470000000     0.320250000000     0.591310000000    -0.36045    
O276     O      0.979780000000     0.271990000000     0.977680000000    -0.368239   
O277     O      0.015700000000     0.348410000000     0.577510000000    -0.364731   
O278     O      0.012000000000     0.236190000000     0.485740000000    -0.367775   
O279     O      0.964080000000     0.318130000000     0.005440000000    -0.362144   
O280     O      0.534140000000     0.271170000000     0.573080000000    -0.384047   
O281     O      0.560280000000     0.272900000000     0.965500000000    -0.374169   
O282     O      0.558800000000     0.371500000000     0.036300000000    -0.361173   
O283     O      0.593710000000     0.269950000000     0.552720000000    -0.369464   
O284     O      0.992190000000     0.352000000000     0.972720000000    -0.35634    
O285     O      0.018080000000     0.378320000000     0.004990000000    -0.361853   
O286     O      0.580460000000     0.242870000000     0.513960000000    -0.371064   
O287     O      0.023500000000     0.301920000000     0.948350000000    -0.367091   
O288     O      0.589850000000     0.334310000000     0.542450000000    -0.368706   
O289     O      0.040200000000     0.309950000000     0.511350000000    -0.577236   
O290     O      0.844270000000     0.041150000000     0.589790000000    -0.36298    
O291     O      0.729910000000     0.544850000000     0.041080000000    -0.372362   
O292     O      0.762200000000     0.089190000000     0.591740000000    -0.365947   
O293     O      0.813170000000     0.495520000000     0.020240000000    -0.358596   
O294     O      0.726890000000     0.600910000000     0.561980000000    -0.362047   
O295     O      0.841820000000     0.510210000000     0.556550000000    -0.36541    
O296     O      0.761500000000     0.508780000000     0.027970000000    -0.366506   
O297     O      0.816670000000     0.079420000000     0.606050000000    -0.361472   
O298     O      0.864460000000     0.048770000000     0.011150000000    -0.374646   
O299     O      0.761770000000     0.118970000000     0.014580000000    -0.374275   
O300     O      0.834590000000     0.118860000000     0.563940000000    -0.372142   
O301     O      0.775070000000     0.548110000000     0.975180000000    -0.363851   
O302     O      0.746630000000     0.585630000000     0.991480000000    -0.369856   
O303     O      0.866650000000     0.082620000000     0.552280000000    -0.368567   
O304     O      0.825510000000     0.548900000000     0.986070000000    -0.374906   
O305     O      0.783880000000     0.133870000000     0.554970000000    -0.365735   
O306     O      0.790350000000     0.560850000000     0.552340000000    -0.583419   
O307     O      0.998300000000     0.581130000000     0.210490000000    -0.361026   
O308     O      0.577350000000     0.070040000000     0.341240000000    -0.365419   
O309     O      0.023760000000     0.641050000000     0.290710000000    -0.370564   
O310     O      0.590180000000     0.064770000000     0.247620000000    -0.378592   
O311     O      0.556360000000     0.608190000000     0.331670000000    -0.359465   
O312     O      0.560050000000     0.563640000000     0.216990000000    -0.364756   
O313     O      0.600030000000     0.041100000000     0.308400000000    -0.356671   
O314     O      0.985860000000     0.619620000000     0.239750000000    -0.365108   
O315     O      0.018880000000     0.011900000000     0.234900000000    -0.374441   
O316     O      0.010620000000     0.097530000000     0.345800000000    -0.369012   
O317     O      0.963280000000     0.581550000000     0.271760000000    -0.362903   
O318     O      0.558970000000     0.009370000000     0.308510000000    -0.362802   
O319     O      0.524020000000     0.036490000000     0.329910000000    -0.393101   
O320     O      0.979370000000     0.541060000000     0.247090000000    -0.365993   
O321     O      0.561250000000     0.000520000000     0.257050000000    -0.363031   
O322     O      0.978310000000     0.612040000000     0.313730000000    -0.359474   
O323     O      0.545340000000     0.571310000000     0.278690000000    -0.589775   
O324     O      0.515560000000     0.740440000000     0.040510000000    -0.386573   
O325     O      0.979590000000     0.835050000000     0.546850000000    -0.374826   
O326     O      0.553750000000     0.819020000000     0.094230000000    -0.359407   
O327     O      0.979670000000     0.769600000000     0.478190000000    -0.365536   
O328     O      0.016840000000     0.846480000000     0.078590000000    -0.364448   
O329     O      0.012580000000     0.733370000000     0.988350000000    -0.366644   
O330     O      0.964540000000     0.812710000000     0.506110000000    -0.363129   
O331     O      0.526350000000     0.773570000000     0.075590000000    -0.388751   
O332     O      0.561740000000     0.765140000000     0.472630000000    -0.375863   
O333     O      0.557980000000     0.866160000000     0.534020000000    -0.360906   
O334     O      0.590440000000     0.764540000000     0.059280000000    -0.372774   
O335     O      0.993100000000     0.848920000000     0.472600000000    -0.358698   
O336     O      0.017530000000     0.875510000000     0.505820000000    -0.361664   
O337     O      0.577100000000     0.736040000000     0.021450000000    -0.373824   
O338     O      0.025720000000     0.798980000000     0.449620000000    -0.368781   
O339     O      0.589290000000     0.829220000000     0.045340000000    -0.367032   
O340     O      0.041960000000     0.806950000000     0.013080000000    -0.575597   
O341     O      0.836550000000     0.545650000000     0.097810000000    -0.366034   
O342     O      0.732480000000     0.037380000000     0.526680000000    -0.361901   
O343     O      0.759450000000     0.614440000000     0.095890000000    -0.359753   
O344     O      0.816540000000     0.987200000000     0.512840000000    -0.359896   
O345     O      0.730740000000     0.080270000000     0.055990000000    -0.360902   
O346     O      0.842280000000     0.001340000000     0.050940000000    -0.3667     
O347     O      0.764290000000     0.000870000000     0.515210000000    -0.364903   
O348     O      0.810780000000     0.585340000000     0.113930000000    -0.36568    
O349     O      0.859670000000     0.560250000000     0.519030000000    -0.372946   
O350     O      0.757620000000     0.626290000000     0.521270000000    -0.368104   
O351     O      0.833830000000     0.626230000000     0.072710000000    -0.371774   
O352     O      0.778850000000     0.040190000000     0.465800000000    -0.363853   
O353     O      0.753640000000     0.080420000000     0.481610000000    -0.371837   
O354     O      0.864370000000     0.588500000000     0.061320000000    -0.368548   
O355     O      0.831060000000     0.038900000000     0.477560000000    -0.379042   
O356     O      0.784050000000     0.643210000000     0.058560000000    -0.357589   
O357     O      0.794290000000     0.051930000000     0.043050000000    -0.585335   
O358     O      0.997450000000     0.581320000000     0.710570000000    -0.361132   
O359     O      0.577250000000     0.070140000000     0.841870000000    -0.365394   
O360     O      0.022810000000     0.641200000000     0.790700000000    -0.370597   
O361     O      0.590000000000     0.064690000000     0.748300000000    -0.378514   
O362     O      0.554900000000     0.608690000000     0.831800000000    -0.359868   
O363     O      0.559040000000     0.563830000000     0.717150000000    -0.364508   
O364     O      0.599790000000     0.041120000000     0.809000000000    -0.356583   
O365     O      0.984940000000     0.619720000000     0.739890000000    -0.365105   
O366     O      0.018430000000     0.012440000000     0.734950000000    -0.374593   
O367     O      0.010520000000     0.098010000000     0.845970000000    -0.369003   
O368     O      0.962490000000     0.581490000000     0.771870000000    -0.362518   
O369     O      0.558680000000     0.009430000000     0.809190000000    -0.362833   
O370     O      0.523770000000     0.036560000000     0.830630000000    -0.39303    
O371     O      0.978680000000     0.541100000000     0.747110000000    -0.365711   
O372     O      0.560830000000     0.000680000000     0.757620000000    -0.363077   
O373     O      0.977380000000     0.611790000000     0.813810000000    -0.359457   
O374     O      0.544130000000     0.571600000000     0.778900000000    -0.588976   
O375     O      0.515000000000     0.740870000000     0.541130000000    -0.387021   
O376     O      0.980110000000     0.835840000000     0.046870000000    -0.374276   
O377     O      0.553640000000     0.819570000000     0.594190000000    -0.359353   
O378     O      0.979920000000     0.769700000000     0.978720000000    -0.366186   
O379     O      0.016270000000     0.846690000000     0.578460000000    -0.364819   
O380     O      0.012200000000     0.733250000000     0.488210000000    -0.366515   
O381     O      0.964900000000     0.813350000000     0.006270000000    -0.362729   
O382     O      0.526200000000     0.774050000000     0.576040000000    -0.388097   
O383     O      0.561560000000     0.765980000000     0.971970000000    -0.375738   
O384     O      0.557810000000     0.866280000000     0.034490000000    -0.360889   
O385     O      0.589820000000     0.764170000000     0.560210000000    -0.372871   
O386     O      0.993500000000     0.849110000000     0.972810000000    -0.358274   
O387     O      0.018340000000     0.875590000000     0.005810000000    -0.361487   
O388     O      0.576370000000     0.735330000000     0.522640000000    -0.373938   
O389     O      0.025680000000     0.799150000000     0.949610000000    -0.368542   
O390     O      0.589340000000     0.829070000000     0.545130000000    -0.367171   
O391     O      0.041490000000     0.806820000000     0.513110000000    -0.575141   
O392     O      0.836520000000     0.545850000000     0.597460000000    -0.366193   
O393     O      0.732630000000     0.037620000000     0.026360000000    -0.361565   
O394     O      0.759200000000     0.613850000000     0.595840000000    -0.359609   
O395     O      0.815720000000     0.986780000000     0.012970000000    -0.359468   
O396     O      0.730380000000     0.080060000000     0.556350000000    -0.360669   
O397     O      0.843360000000     0.002020000000     0.550540000000    -0.367061   
O398     O      0.764250000000     0.000970000000     0.014770000000    -0.36437    
O399     O      0.810610000000     0.585410000000     0.613650000000    -0.365652   
O400     O      0.859370000000     0.559400000000     0.019190000000    -0.373291   
O401     O      0.758050000000     0.626020000000     0.021170000000    -0.367783   
O402     O      0.833440000000     0.626650000000     0.572330000000    -0.371759   
O403     O      0.779150000000     0.040370000000     0.965420000000    -0.36425    
O404     O      0.753990000000     0.080610000000     0.981300000000    -0.371906   
O405     O      0.864280000000     0.589080000000     0.561240000000    -0.368224   
O406     O      0.831270000000     0.038540000000     0.977290000000    -0.379841   
O407     O      0.783430000000     0.643370000000     0.558820000000    -0.357409   
O408     O      0.794090000000     0.052140000000     0.543370000000    -0.585781   


