data_structure

_audit_creation_method RASPA-1.0
_audit_creation_date 2023-5-19
_audit_author_name 'Poobodin Mano'

_cell_length_a    43.6844
_cell_length_b    44.062
_cell_length_c    19.6113
_cell_angle_alpha 90
_cell_angle_beta  90
_cell_angle_gamma 90
_cell_volume      37748.3

_symmetry_cell_setting          triclinic
_symmetry_space_group_name_Hall 'P 1'
_symmetry_space_group_name_H-M  'P 1'
_symmetry_Int_Tables_number     1

_symmetry_equiv_pos_as_xyz 'x,y,z'

loop_
_atom_site_label
_atom_site_type_symbol
_atom_site_fract_x
_atom_site_fract_y
_atom_site_fract_z
_atom_site_charge
C1       C      0.395820000000     0.391580000000     0.504680000000     0.394343   
C2       C      0.008300000000     0.004170000000     0.505700000000     0.396754   
C3       C      0.010080000000     0.390100000000     0.495870000000     0.396186   
C4       C      0.395710000000     0.004240000000     0.506570000000     0.395751   
C5       C      0.395660000000     0.003590000000     0.840490000000     0.396277   
C6       C      0.008420000000     0.392690000000     0.837040000000     0.391757   
C7       C      0.395230000000     0.393200000000     0.839020000000     0.395243   
C8       C      0.008050000000     0.004370000000     0.840320000000     0.397508   
C9       C      0.258060000000     0.254340000000     0.758030000000     0.394352   
C10      C      0.145280000000     0.142040000000     0.759780000000     0.394264   
C11      C      0.257980000000     0.141950000000     0.757220000000     0.394209   
C12      C      0.143800000000     0.256140000000     0.768270000000     0.394669   
C13      C      0.145840000000     0.253860000000     0.927160000000     0.390828   
C14      C      0.258400000000     0.142670000000     0.923310000000     0.395031   
C15      C      0.259050000000     0.253380000000     0.923510000000     0.394949   
C16      C      0.146170000000     0.142230000000     0.925300000000     0.394993   
C17      C      0.075980000000     0.032900000000     0.603000000000     0.0114982  
C18      C      0.126550000000     0.044930000000     0.646350000000    -0.0458187  
C19      C      0.140710000000     0.096210000000     0.689830000000    -0.0244604  
C20      C      0.117280000000     0.074590000000     0.661680000000     0.0119429  
C21      C      0.098600000000     0.136870000000     0.691430000000    -0.0243302  
C22      C      0.077280000000     0.113280000000     0.662810000000     0.0119148  
C23      C      0.106150000000     0.024320000000     0.617690000000    -0.0452425  
C24      C      0.087060000000     0.083610000000     0.647800000000    -0.00823351 
C25      C      0.047090000000     0.121820000000     0.648320000000    -0.0458188  
C26      C      0.026700000000     0.101240000000     0.619550000000    -0.0452167  
C27      C      0.012600000000     0.049980000000     0.575830000000    -0.0217756  
C28      C      0.035980000000     0.071590000000     0.604200000000     0.0111347  
C29      C      0.054390000000     0.009090000000     0.576350000000    -0.0220748  
C30      C      0.066210000000     0.062570000000     0.618090000000    -0.00750524 
C31      C      0.115580000000     0.071970000000     0.925080000000     0.0202688  
C32      C      0.107770000000     0.025570000000     0.860560000000    -0.0409641  
C33      C      0.059370000000     0.015970000000     0.793780000000    -0.0246133  
C34      C      0.078890000000     0.035690000000     0.839360000000     0.0192102  
C35      C      0.018950000000     0.055620000000     0.794920000000    -0.024838   
C36      C      0.038860000000     0.074900000000     0.840610000000     0.0192166  
C37      C      0.125850000000     0.043440000000     0.903330000000    -0.0418411  
C38      C      0.068020000000     0.064340000000     0.861210000000    -0.00371179 
C39      C      0.028440000000     0.103280000000     0.863030000000    -0.041163   
C40      C      0.046490000000     0.121120000000     0.905920000000    -0.0416339  
C41      C      0.094950000000     0.130770000000     0.972490000000    -0.026125   
C42      C      0.075430000000     0.111060000000     0.926850000000     0.0199027  
C43      C      0.135270000000     0.091090000000     0.971560000000    -0.0267516  
C44      C      0.086340000000     0.082460000000     0.904770000000    -0.00451065 
C45      C      0.114530000000     0.324720000000     0.676640000000     0.0124062  
C46      C      0.107780000000     0.370420000000     0.609640000000    -0.0462197  
C47      C      0.061410000000     0.380160000000     0.539410000000    -0.0246156  
C48      C      0.079130000000     0.360250000000     0.587260000000     0.012036   
C49      C      0.019640000000     0.339020000000     0.538910000000    -0.0232908  
C50      C      0.039330000000     0.321340000000     0.587370000000     0.011679   
C51      C      0.125150000000     0.352990000000     0.654210000000    -0.0465108  
C52      C      0.067980000000     0.332010000000     0.609420000000    -0.00854965 
C53      C      0.028640000000     0.293130000000     0.610060000000    -0.0460033  
C54      C      0.046020000000     0.275700000000     0.654640000000    -0.0464793  
C55      C      0.092430000000     0.265960000000     0.724800000000    -0.024908   
C56      C      0.074680000000     0.285860000000     0.676970000000     0.0122473  
C57      C      0.133940000000     0.307320000000     0.726150000000    -0.0253922  
C58      C      0.085840000000     0.314090000000     0.654730000000    -0.00909796 
C59      C      0.325500000000     0.113500000000     0.659720000000     0.0126291  
C60      C      0.376320000000     0.101720000000     0.617470000000    -0.0453092  
C61      C      0.391150000000     0.050220000000     0.576230000000    -0.0240998  
C62      C      0.367450000000     0.071810000000     0.603430000000     0.0114354  
C63      C      0.349750000000     0.008990000000     0.577510000000    -0.0213392  
C64      C      0.327950000000     0.032590000000     0.604150000000     0.0111298  
C65      C      0.355590000000     0.122320000000     0.644910000000    -0.0459021  
C66      C      0.337310000000     0.062530000000     0.617620000000    -0.00733055 
C67      C      0.297830000000     0.023810000000     0.618650000000    -0.044985   
C68      C      0.277110000000     0.044400000000     0.646210000000    -0.0458222  
C69      C      0.262350000000     0.095850000000     0.687920000000    -0.0245192  
C70      C      0.286010000000     0.074290000000     0.660340000000     0.012006   
C71      C      0.303460000000     0.137270000000     0.684550000000    -0.0252695  
C72      C      0.316140000000     0.083570000000     0.646120000000    -0.00833955 
C73      C      0.329520000000     0.284850000000     0.920390000000     0.0200103  
C74      C      0.375550000000     0.293890000000     0.853980000000    -0.0412851  
C75      C      0.383980000000     0.342760000000     0.789620000000    -0.0263049  
C76      C      0.364750000000     0.322610000000     0.834850000000     0.0197269  
C77      C      0.343420000000     0.382190000000     0.794580000000    -0.0261261  
C78      C      0.324670000000     0.361710000000     0.840070000000     0.0195675  
C79      C      0.358190000000     0.275280000000     0.896650000000    -0.0418787  
C80      C      0.335910000000     0.332730000000     0.858600000000    -0.00407784 
C81      C      0.296160000000     0.371410000000     0.864460000000    -0.041433   
C82      C      0.278840000000     0.352830000000     0.907260000000    -0.0414404  
C83      C      0.270430000000     0.304000000000     0.971770000000    -0.0262234  
C84      C      0.289570000000     0.324060000000     0.926120000000     0.0198989  
C85      C      0.311030000000     0.264630000000     0.966980000000    -0.0266297  
C86      C      0.318330000000     0.313870000000     0.902070000000    -0.00434042 
C87      C      0.365210000000     0.074010000000     0.838690000000     0.0201088  
C88      C      0.357900000000     0.121080000000     0.900990000000    -0.0413168  
C89      C      0.309970000000     0.131440000000     0.968890000000    -0.0259922  
C90      C      0.329150000000     0.111230000000     0.923700000000     0.019544   
C91      C      0.269470000000     0.091880000000     0.971050000000    -0.0259889  
C92      C      0.289060000000     0.072080000000     0.925800000000     0.0197499  
C93      C      0.375660000000     0.102740000000     0.858590000000    -0.0415371  
C94      C      0.318100000000     0.082370000000     0.903710000000    -0.0040504  
C95      C      0.278450000000     0.043500000000     0.905230000000    -0.0413396  
C96      C      0.296180000000     0.025190000000     0.862660000000    -0.0412017  
C97      C      0.344130000000     0.014830000000     0.794810000000    -0.024603   
C98      C      0.324980000000     0.035000000000     0.840210000000     0.0194074  
C99      C      0.384570000000     0.054390000000     0.792580000000    -0.0268288  
C100     C      0.336100000000     0.063790000000     0.860490000000    -0.00416557 
C101     C      0.039210000000     0.322170000000     0.838310000000     0.0178987  
C102     C      0.046300000000     0.275560000000     0.902710000000    -0.0449314  
C103     C      0.094080000000     0.265600000000     0.971810000000    -0.0262743  
C104     C      0.074990000000     0.285540000000     0.925580000000     0.0174748  
C105     C      0.134590000000     0.305090000000     0.973070000000    -0.0261457  
C106     C      0.115070000000     0.324650000000     0.926910000000     0.017438   
C107     C      0.028710000000     0.293570000000     0.859130000000    -0.0449649  
C108     C      0.086100000000     0.314240000000     0.904660000000    -0.00707074 
C109     C      0.125700000000     0.353120000000     0.905500000000    -0.0448118  
C110     C      0.108120000000     0.371130000000     0.861910000000    -0.0451939  
C111     C      0.060310000000     0.381130000000     0.792920000000    -0.026408   
C112     C      0.079370000000     0.361200000000     0.839290000000     0.0173894  
C113     C      0.019980000000     0.341500000000     0.791070000000    -0.025826   
C114     C      0.068220000000     0.332540000000     0.860390000000    -0.00728192 
C115     C      0.286460000000     0.321930000000     0.661590000000     0.0122964  
C116     C      0.298370000000     0.372290000000     0.619250000000    -0.0456731  
C117     C      0.350070000000     0.386680000000     0.576080000000    -0.0244167  
C118     C      0.328300000000     0.363240000000     0.603480000000     0.0119044  
C119     C      0.391020000000     0.344930000000     0.571950000000    -0.0243929  
C120     C      0.367370000000     0.323650000000     0.600680000000     0.011565   
C121     C      0.277700000000     0.351870000000     0.647630000000    -0.0457227  
C122     C      0.337470000000     0.333220000000     0.616380000000    -0.00789627 
C123     C      0.376100000000     0.293690000000     0.614480000000    -0.0454875  
C124     C      0.355450000000     0.273290000000     0.643010000000    -0.0458503  
C125     C      0.303780000000     0.258950000000     0.686460000000    -0.02454    
C126     C      0.325530000000     0.282350000000     0.658780000000     0.0121963  
C127     C      0.262590000000     0.300390000000     0.688370000000    -0.0251428  
C128     C      0.316360000000     0.312370000000     0.645840000000    -0.00825155 
C129     C      0.395820000000     0.391580000000     0.004680000000     0.39389    
C130     C      0.008300000000     0.004170000000     0.005700000000     0.396287   
C131     C      0.010080000000     0.390100000000     0.995870000000     0.396351   
C132     C      0.395710000000     0.004240000000     0.006570000000     0.395324   
C133     C      0.395660000000     0.003590000000     0.340490000000     0.39627    
C134     C      0.008420000000     0.392690000000     0.337040000000     0.391738   
C135     C      0.395230000000     0.393200000000     0.339020000000     0.395231   
C136     C      0.008050000000     0.004370000000     0.340310000000     0.397467   
C137     C      0.258060000000     0.254340000000     0.258030000000     0.394349   
C138     C      0.145280000000     0.142040000000     0.259780000000     0.394284   
C139     C      0.257980000000     0.141950000000     0.257220000000     0.39423    
C140     C      0.143800000000     0.256140000000     0.268270000000     0.394686   
C141     C      0.145840000000     0.253860000000     0.427170000000     0.390764   
C142     C      0.258400000000     0.142670000000     0.423320000000     0.394942   
C143     C      0.259050000000     0.253380000000     0.423510000000     0.394923   
C144     C      0.146170000000     0.142230000000     0.425300000000     0.394966   
C145     C      0.075980000000     0.032900000000     0.103010000000     0.0114819  
C146     C      0.126550000000     0.044930000000     0.146350000000    -0.0458257  
C147     C      0.140710000000     0.096210000000     0.189830000000    -0.0244541  
C148     C      0.117280000000     0.074590000000     0.161680000000     0.0119364  
C149     C      0.098600000000     0.136870000000     0.191430000000    -0.0243205  
C150     C      0.077280000000     0.113280000000     0.162800000000     0.011906   
C151     C      0.106150000000     0.024320000000     0.117690000000    -0.0452539  
C152     C      0.087060000000     0.083610000000     0.147800000000    -0.00823305 
C153     C      0.047090000000     0.121820000000     0.148320000000    -0.0458251  
C154     C      0.026700000000     0.101240000000     0.119550000000    -0.045229   
C155     C      0.012600000000     0.049980000000     0.075830000000    -0.0217945  
C156     C      0.035980000000     0.071590000000     0.104200000000     0.0111203  
C157     C      0.054390000000     0.009090000000     0.076350000000    -0.0220939  
C158     C      0.066210000000     0.062570000000     0.118090000000    -0.00751479 
C159     C      0.115580000000     0.071970000000     0.425080000000     0.0203195  
C160     C      0.107770000000     0.025570000000     0.360560000000    -0.0409525  
C161     C      0.059370000000     0.015970000000     0.293780000000    -0.0246054  
C162     C      0.078890000000     0.035690000000     0.339360000000     0.0191795  
C163     C      0.018950000000     0.055620000000     0.294920000000    -0.0248284  
C164     C      0.038860000000     0.074900000000     0.340600000000     0.019183   
C165     C      0.125850000000     0.043440000000     0.403320000000    -0.0418937  
C166     C      0.068020000000     0.064340000000     0.361210000000    -0.0036876  
C167     C      0.028440000000     0.103280000000     0.363030000000    -0.0411484  
C168     C      0.046490000000     0.121120000000     0.405920000000    -0.0416934  
C169     C      0.094950000000     0.130770000000     0.472490000000    -0.0263714  
C170     C      0.075430000000     0.111060000000     0.426850000000     0.0199568  
C171     C      0.135270000000     0.091090000000     0.471560000000    -0.0269974  
C172     C      0.086340000000     0.082460000000     0.404770000000    -0.00458581 
C173     C      0.114530000000     0.324720000000     0.176640000000     0.0123921  
C174     C      0.107780000000     0.370420000000     0.109640000000    -0.0462743  
C175     C      0.061410000000     0.380160000000     0.039410000000    -0.024856   
C176     C      0.079130000000     0.360250000000     0.087260000000     0.0120956  
C177     C      0.019640000000     0.339020000000     0.038910000000    -0.0235342  
C178     C      0.039330000000     0.321340000000     0.087370000000     0.0117482  
C179     C      0.125150000000     0.352990000000     0.154210000000    -0.0464986  
C180     C      0.067980000000     0.332010000000     0.109420000000    -0.00861985 
C181     C      0.028640000000     0.293130000000     0.110050000000    -0.0460725  
C182     C      0.046020000000     0.275700000000     0.154640000000    -0.0464607  
C183     C      0.092430000000     0.265960000000     0.224800000000    -0.0248994  
C184     C      0.074680000000     0.285860000000     0.176970000000     0.0122242  
C185     C      0.133940000000     0.307320000000     0.226150000000    -0.0254122  
C186     C      0.085840000000     0.314090000000     0.154740000000    -0.00907165 
C187     C      0.325500000000     0.113500000000     0.159710000000     0.0126193  
C188     C      0.376320000000     0.101720000000     0.117470000000    -0.0453264  
C189     C      0.391150000000     0.050220000000     0.076240000000    -0.0241157  
C190     C      0.367450000000     0.071810000000     0.103430000000     0.0114245  
C191     C      0.349750000000     0.008990000000     0.077510000000    -0.0213594  
C192     C      0.327950000000     0.032590000000     0.104150000000     0.011118   
C193     C      0.355590000000     0.122320000000     0.144910000000    -0.0459053  
C194     C      0.337310000000     0.062530000000     0.117620000000    -0.00734278 
C195     C      0.297830000000     0.023810000000     0.118650000000    -0.0450016  
C196     C      0.277110000000     0.044400000000     0.146210000000    -0.0458281  
C197     C      0.262350000000     0.095850000000     0.187920000000    -0.0245139  
C198     C      0.286010000000     0.074290000000     0.160350000000     0.0119999  
C199     C      0.303460000000     0.137270000000     0.184550000000    -0.025259   
C200     C      0.316140000000     0.083570000000     0.146120000000    -0.00833769 
C201     C      0.329520000000     0.284850000000     0.420390000000     0.020068   
C202     C      0.375550000000     0.293890000000     0.353980000000    -0.0412739  
C203     C      0.383980000000     0.342760000000     0.289620000000    -0.0263     
C204     C      0.364750000000     0.322610000000     0.334850000000     0.0196986  
C205     C      0.343420000000     0.382190000000     0.294580000000    -0.0261211  
C206     C      0.324670000000     0.361710000000     0.340070000000     0.0195387  
C207     C      0.358190000000     0.275280000000     0.396650000000    -0.0419368  
C208     C      0.335910000000     0.332730000000     0.358600000000    -0.00405774 
C209     C      0.296160000000     0.371410000000     0.364460000000    -0.0414233  
C210     C      0.278840000000     0.352830000000     0.407260000000    -0.0414983  
C211     C      0.270430000000     0.304000000000     0.471770000000    -0.0264672  
C212     C      0.289570000000     0.324060000000     0.426120000000     0.019955   
C213     C      0.311030000000     0.264630000000     0.466980000000    -0.026877   
C214     C      0.318330000000     0.313870000000     0.402070000000    -0.00441671 
C215     C      0.365210000000     0.074010000000     0.338690000000     0.0200661  
C216     C      0.357900000000     0.121080000000     0.400990000000    -0.0413775  
C217     C      0.309970000000     0.131440000000     0.468890000000    -0.0262386  
C218     C      0.329150000000     0.111230000000     0.423700000000     0.0196021  
C219     C      0.269470000000     0.091880000000     0.471050000000    -0.0262343  
C220     C      0.289060000000     0.072080000000     0.425800000000     0.0198059  
C221     C      0.375660000000     0.102740000000     0.358590000000    -0.0415188  
C222     C      0.318100000000     0.082370000000     0.403710000000    -0.00412959 
C223     C      0.278450000000     0.043500000000     0.405230000000    -0.0413993  
C224     C      0.296180000000     0.025190000000     0.362670000000    -0.04118    
C225     C      0.344130000000     0.014830000000     0.294810000000    -0.0245931  
C226     C      0.324980000000     0.035000000000     0.340220000000     0.0193719  
C227     C      0.384570000000     0.054390000000     0.292590000000    -0.0267772  
C228     C      0.336100000000     0.063790000000     0.360490000000    -0.00413861 
C229     C      0.039210000000     0.322170000000     0.338310000000     0.0178722  
C230     C      0.046300000000     0.275560000000     0.402710000000    -0.0449853  
C231     C      0.094080000000     0.265600000000     0.471810000000    -0.026514   
C232     C      0.074990000000     0.285540000000     0.425580000000     0.0175314  
C233     C      0.134590000000     0.305090000000     0.473060000000    -0.0263626  
C234     C      0.115070000000     0.324650000000     0.426910000000     0.0174892  
C235     C      0.028710000000     0.293570000000     0.359130000000    -0.0449383  
C236     C      0.086100000000     0.314240000000     0.404660000000    -0.00713769 
C237     C      0.125700000000     0.353120000000     0.405500000000    -0.0448625  
C238     C      0.108120000000     0.371130000000     0.361910000000    -0.0451693  
C239     C      0.060310000000     0.381130000000     0.292920000000    -0.0264026  
C240     C      0.079370000000     0.361200000000     0.339290000000     0.0173639  
C241     C      0.019980000000     0.341500000000     0.291070000000    -0.0258196  
C242     C      0.068220000000     0.332540000000     0.360390000000    -0.00725437 
C243     C      0.286460000000     0.321930000000     0.161590000000     0.012285   
C244     C      0.298370000000     0.372290000000     0.119260000000    -0.0456773  
C245     C      0.350070000000     0.386680000000     0.076070000000    -0.0244297  
C246     C      0.328300000000     0.363240000000     0.103480000000     0.0118808  
C247     C      0.391020000000     0.344930000000     0.071950000000    -0.0244107  
C248     C      0.367370000000     0.323650000000     0.100680000000     0.0115491  
C249     C      0.277700000000     0.351870000000     0.147620000000    -0.0457233  
C250     C      0.337470000000     0.333220000000     0.116380000000    -0.00790325 
C251     C      0.376100000000     0.293690000000     0.114480000000    -0.0454983  
C252     C      0.355450000000     0.273290000000     0.143000000000    -0.0458497  
C253     C      0.303780000000     0.258950000000     0.186460000000    -0.0245323  
C254     C      0.325530000000     0.282350000000     0.158780000000     0.0121846  
C255     C      0.262590000000     0.300390000000     0.188370000000    -0.0251351  
C256     C      0.316360000000     0.312370000000     0.145840000000    -0.00824879 
C257     C      0.395820000000     0.891580000000     0.504680000000     0.394123   
C258     C      0.008300000000     0.504170000000     0.505700000000     0.395372   
C259     C      0.010080000000     0.890100000000     0.495870000000     0.396194   
C260     C      0.395710000000     0.504240000000     0.506570000000     0.39429    
C261     C      0.395660000000     0.503590000000     0.840490000000     0.394863   
C262     C      0.008420000000     0.892690000000     0.837040000000     0.391759   
C263     C      0.395230000000     0.893200000000     0.839020000000     0.395149   
C264     C      0.008050000000     0.504370000000     0.840320000000     0.396175   
C265     C      0.258060000000     0.754340000000     0.758030000000     0.394357   
C266     C      0.145280000000     0.642040000000     0.759780000000     0.394271   
C267     C      0.257980000000     0.641950000000     0.757220000000     0.394285   
C268     C      0.143800000000     0.756140000000     0.768270000000     0.394675   
C269     C      0.145840000000     0.753860000000     0.927160000000     0.390834   
C270     C      0.258400000000     0.642660000000     0.923310000000     0.394995   
C271     C      0.259050000000     0.753380000000     0.923510000000     0.394956   
C272     C      0.146170000000     0.642230000000     0.925300000000     0.395002   
C273     C      0.075980000000     0.532900000000     0.603000000000     0.0122472  
C274     C      0.126550000000     0.544930000000     0.646350000000    -0.0456253  
C275     C      0.140710000000     0.596210000000     0.689830000000    -0.0243968  
C276     C      0.117280000000     0.574590000000     0.661680000000     0.0117859  
C277     C      0.098600000000     0.636880000000     0.691430000000    -0.0243964  
C278     C      0.077280000000     0.613280000000     0.662810000000     0.0119002  
C279     C      0.106150000000     0.524320000000     0.617690000000    -0.0458082  
C280     C      0.087060000000     0.583610000000     0.647800000000    -0.00806993 
C281     C      0.047090000000     0.621830000000     0.648320000000    -0.0458304  
C282     C      0.026700000000     0.601240000000     0.619550000000    -0.0452545  
C283     C      0.012600000000     0.549970000000     0.575830000000    -0.0217936  
C284     C      0.035980000000     0.571590000000     0.604200000000     0.0112669  
C285     C      0.054390000000     0.509090000000     0.576350000000    -0.0250553  
C286     C      0.066210000000     0.562570000000     0.618090000000    -0.00787515 
C287     C      0.115580000000     0.571970000000     0.925080000000     0.0201795  
C288     C      0.107770000000     0.525570000000     0.860560000000    -0.0413239  
C289     C      0.059370000000     0.515970000000     0.793780000000    -0.0261818  
C290     C      0.078890000000     0.535690000000     0.839360000000     0.0195555  
C291     C      0.018950000000     0.555620000000     0.794920000000    -0.0248974  
C292     C      0.038860000000     0.574900000000     0.840610000000     0.0193273  
C293     C      0.125850000000     0.543450000000     0.903330000000    -0.0417734  
C294     C      0.068020000000     0.564340000000     0.861210000000    -0.00390581 
C295     C      0.028440000000     0.603280000000     0.863030000000    -0.0412075  
C296     C      0.046490000000     0.621120000000     0.905920000000    -0.0415911  
C297     C      0.094950000000     0.630770000000     0.972490000000    -0.0261069  
C298     C      0.075430000000     0.611060000000     0.926850000000     0.0198669  
C299     C      0.135270000000     0.591090000000     0.971560000000    -0.026717   
C300     C      0.086340000000     0.582460000000     0.904770000000    -0.00442766 
C301     C      0.114530000000     0.824720000000     0.676640000000     0.0124052  
C302     C      0.107780000000     0.870420000000     0.609640000000    -0.0462224  
C303     C      0.061410000000     0.880160000000     0.539410000000    -0.0245938  
C304     C      0.079130000000     0.860250000000     0.587260000000     0.0120062  
C305     C      0.019640000000     0.839020000000     0.538910000000    -0.0232674  
C306     C      0.039330000000     0.821340000000     0.587370000000     0.01168    
C307     C      0.125150000000     0.852990000000     0.654210000000    -0.0465331  
C308     C      0.067980000000     0.832010000000     0.609420000000    -0.00854282 
C309     C      0.028640000000     0.793130000000     0.610060000000    -0.0460154  
C310     C      0.046020000000     0.775700000000     0.654640000000    -0.0464249  
C311     C      0.092430000000     0.765960000000     0.724800000000    -0.0248981  
C312     C      0.074680000000     0.785860000000     0.676970000000     0.0122337  
C313     C      0.133940000000     0.807320000000     0.726150000000    -0.0253863  
C314     C      0.085840000000     0.814090000000     0.654730000000    -0.00909189 
C315     C      0.325500000000     0.613500000000     0.659720000000     0.0125478  
C316     C      0.376320000000     0.601720000000     0.617470000000    -0.0453964  
C317     C      0.391150000000     0.550220000000     0.576230000000    -0.0242857  
C318     C      0.367450000000     0.571810000000     0.603430000000     0.0116463  
C319     C      0.349750000000     0.508990000000     0.577510000000    -0.0243705  
C320     C      0.327950000000     0.532590000000     0.604150000000     0.0119116  
C321     C      0.355590000000     0.622330000000     0.644910000000    -0.045871   
C322     C      0.337310000000     0.562530000000     0.617620000000    -0.00774496 
C323     C      0.297830000000     0.523810000000     0.618650000000    -0.0455689  
C324     C      0.277110000000     0.544400000000     0.646210000000    -0.0456195  
C325     C      0.262350000000     0.595850000000     0.687920000000    -0.0244901  
C326     C      0.286010000000     0.574290000000     0.660340000000     0.0118404  
C327     C      0.303460000000     0.637270000000     0.684550000000    -0.0251868  
C328     C      0.316140000000     0.583570000000     0.646120000000    -0.00813992 
C329     C      0.329520000000     0.784850000000     0.920390000000     0.0200241  
C330     C      0.375550000000     0.793890000000     0.853980000000    -0.0412506  
C331     C      0.383980000000     0.842760000000     0.789620000000    -0.0262477  
C332     C      0.364750000000     0.822610000000     0.834850000000     0.0197085  
C333     C      0.343420000000     0.882190000000     0.794580000000    -0.0261485  
C334     C      0.324670000000     0.861710000000     0.840070000000     0.0195519  
C335     C      0.358190000000     0.775280000000     0.896650000000    -0.04189    
C336     C      0.335910000000     0.832730000000     0.858600000000    -0.00406022 
C337     C      0.296160000000     0.871410000000     0.864460000000    -0.0414392  
C338     C      0.278840000000     0.852830000000     0.907260000000    -0.0414639  
C339     C      0.270430000000     0.804000000000     0.971770000000    -0.0262213  
C340     C      0.289570000000     0.824060000000     0.926120000000     0.0199014  
C341     C      0.311030000000     0.764630000000     0.966980000000    -0.0266309  
C342     C      0.318330000000     0.813870000000     0.902070000000    -0.00434791 
C343     C      0.365210000000     0.574010000000     0.838690000000     0.0202459  
C344     C      0.357900000000     0.621080000000     0.900990000000    -0.0412091  
C345     C      0.309970000000     0.631440000000     0.968890000000    -0.0259419  
C346     C      0.329150000000     0.611220000000     0.923700000000     0.019471   
C347     C      0.269470000000     0.591880000000     0.971050000000    -0.0259476  
C348     C      0.289060000000     0.572080000000     0.925800000000     0.0196393  
C349     C      0.375660000000     0.602740000000     0.858590000000    -0.0416212  
C350     C      0.318100000000     0.582370000000     0.903710000000    -0.00394884 
C351     C      0.278450000000     0.543500000000     0.905230000000    -0.041269   
C352     C      0.296180000000     0.525190000000     0.862660000000    -0.0415647  
C353     C      0.344130000000     0.514830000000     0.794810000000    -0.0262503  
C354     C      0.324980000000     0.535000000000     0.840210000000     0.0197763  
C355     C      0.384570000000     0.554390000000     0.792580000000    -0.0269342  
C356     C      0.336100000000     0.563790000000     0.860490000000    -0.0043821  
C357     C      0.039210000000     0.822170000000     0.838310000000     0.0178943  
C358     C      0.046300000000     0.775560000000     0.902710000000    -0.0449298  
C359     C      0.094080000000     0.765600000000     0.971810000000    -0.0262737  
C360     C      0.074990000000     0.785540000000     0.925580000000     0.0174833  
C361     C      0.134590000000     0.805090000000     0.973070000000    -0.0261435  
C362     C      0.115070000000     0.824650000000     0.926910000000     0.0174416  
C363     C      0.028710000000     0.793570000000     0.859130000000    -0.0449526  
C364     C      0.086100000000     0.814240000000     0.904660000000    -0.00707491 
C365     C      0.125700000000     0.853120000000     0.905500000000    -0.0448353  
C366     C      0.108120000000     0.871130000000     0.861910000000    -0.0451927  
C367     C      0.060310000000     0.881130000000     0.792920000000    -0.0263885  
C368     C      0.079370000000     0.861200000000     0.839290000000     0.0173629  
C369     C      0.019980000000     0.841500000000     0.791070000000    -0.0257974  
C370     C      0.068220000000     0.832540000000     0.860390000000    -0.00726623 
C371     C      0.286460000000     0.821930000000     0.661590000000     0.0122959  
C372     C      0.298370000000     0.872290000000     0.619250000000    -0.0456736  
C373     C      0.350070000000     0.886680000000     0.576080000000    -0.0244008  
C374     C      0.328300000000     0.863240000000     0.603480000000     0.0118766  
C375     C      0.391020000000     0.844930000000     0.571950000000    -0.0243965  
C376     C      0.367370000000     0.823650000000     0.600680000000     0.0115667  
C377     C      0.277700000000     0.851870000000     0.647630000000    -0.0457461  
C378     C      0.337470000000     0.833220000000     0.616380000000    -0.00788782 
C379     C      0.376100000000     0.793690000000     0.614480000000    -0.0454818  
C380     C      0.355450000000     0.773290000000     0.643010000000    -0.0458445  
C381     C      0.303780000000     0.758950000000     0.686460000000    -0.0245388  
C382     C      0.325530000000     0.782340000000     0.658780000000     0.0121961  
C383     C      0.262590000000     0.800390000000     0.688370000000    -0.0251372  
C384     C      0.316360000000     0.812370000000     0.645840000000    -0.00824552 
C385     C      0.395820000000     0.891580000000     0.004680000000     0.393672   
C386     C      0.008300000000     0.504170000000     0.005700000000     0.394904   
C387     C      0.010080000000     0.890100000000     0.995870000000     0.396358   
C388     C      0.395710000000     0.504240000000     0.006570000000     0.393861   
C389     C      0.395660000000     0.503590000000     0.340490000000     0.394856   
C390     C      0.008420000000     0.892690000000     0.337040000000     0.39174    
C391     C      0.395230000000     0.893200000000     0.339020000000     0.395138   
C392     C      0.008050000000     0.504370000000     0.340310000000     0.396135   
C393     C      0.258060000000     0.754340000000     0.258030000000     0.394354   
C394     C      0.145280000000     0.642040000000     0.259780000000     0.394291   
C395     C      0.257980000000     0.641950000000     0.257220000000     0.394306   
C396     C      0.143800000000     0.756140000000     0.268270000000     0.394692   
C397     C      0.145840000000     0.753860000000     0.427170000000     0.39077    
C398     C      0.258400000000     0.642660000000     0.423320000000     0.394906   
C399     C      0.259050000000     0.753380000000     0.423510000000     0.394929   
C400     C      0.146170000000     0.642230000000     0.425300000000     0.394974   
C401     C      0.075980000000     0.532900000000     0.103010000000     0.0122306  
C402     C      0.126550000000     0.544930000000     0.146350000000    -0.0456324  
C403     C      0.140710000000     0.596210000000     0.189830000000    -0.0243905  
C404     C      0.117280000000     0.574590000000     0.161680000000     0.0117795  
C405     C      0.098600000000     0.636880000000     0.191430000000    -0.0243867  
C406     C      0.077280000000     0.613280000000     0.162800000000     0.0118914  
C407     C      0.106150000000     0.524320000000     0.117690000000    -0.0458193  
C408     C      0.087060000000     0.583610000000     0.147800000000    -0.00806954 
C409     C      0.047090000000     0.621830000000     0.148320000000    -0.0458367  
C410     C      0.026700000000     0.601240000000     0.119550000000    -0.0452668  
C411     C      0.012600000000     0.549970000000     0.075830000000    -0.0218125  
C412     C      0.035980000000     0.571590000000     0.104200000000     0.0112525  
C413     C      0.054390000000     0.509090000000     0.076350000000    -0.0250736  
C414     C      0.066210000000     0.562570000000     0.118090000000    -0.00788457 
C415     C      0.115580000000     0.571970000000     0.425080000000     0.0202302  
C416     C      0.107770000000     0.525570000000     0.360560000000    -0.0413123  
C417     C      0.059370000000     0.515970000000     0.293780000000    -0.0261736  
C418     C      0.078890000000     0.535690000000     0.339360000000     0.0195247  
C419     C      0.018950000000     0.555620000000     0.294920000000    -0.0248878  
C420     C      0.038860000000     0.574900000000     0.340600000000     0.0192937  
C421     C      0.125850000000     0.543450000000     0.403320000000    -0.041826   
C422     C      0.068020000000     0.564340000000     0.361210000000    -0.00388157 
C423     C      0.028440000000     0.603280000000     0.363030000000    -0.0411928  
C424     C      0.046490000000     0.621120000000     0.405920000000    -0.0416507  
C425     C      0.094950000000     0.630770000000     0.472490000000    -0.0263534  
C426     C      0.075430000000     0.611060000000     0.426850000000     0.0199211  
C427     C      0.135270000000     0.591090000000     0.471560000000    -0.0269631  
C428     C      0.086340000000     0.582460000000     0.404770000000    -0.00450291 
C429     C      0.114530000000     0.824720000000     0.176640000000     0.0123911  
C430     C      0.107780000000     0.870420000000     0.109640000000    -0.0462768  
C431     C      0.061410000000     0.880160000000     0.039410000000    -0.0248335  
C432     C      0.079130000000     0.860250000000     0.087260000000     0.0120657  
C433     C      0.019640000000     0.839020000000     0.038910000000    -0.0235103  
C434     C      0.039330000000     0.821340000000     0.087370000000     0.0117491  
C435     C      0.125150000000     0.852990000000     0.154210000000    -0.0465209  
C436     C      0.067980000000     0.832010000000     0.109420000000    -0.00861286 
C437     C      0.028640000000     0.793130000000     0.110050000000    -0.0460845  
C438     C      0.046020000000     0.775700000000     0.154640000000    -0.0464064  
C439     C      0.092430000000     0.765960000000     0.224800000000    -0.0248896  
C440     C      0.074680000000     0.785860000000     0.176970000000     0.0122106  
C441     C      0.133940000000     0.807320000000     0.226150000000    -0.0254064  
C442     C      0.085840000000     0.814090000000     0.154740000000    -0.00906565 
C443     C      0.325500000000     0.613500000000     0.159710000000     0.0125381  
C444     C      0.376320000000     0.601720000000     0.117470000000    -0.0454136  
C445     C      0.391150000000     0.550220000000     0.076240000000    -0.0243016  
C446     C      0.367450000000     0.571810000000     0.103430000000     0.0116354  
C447     C      0.349750000000     0.508990000000     0.077510000000    -0.02439    
C448     C      0.327950000000     0.532590000000     0.104150000000     0.0118996  
C449     C      0.355590000000     0.622330000000     0.144910000000    -0.0458742  
C450     C      0.337310000000     0.562530000000     0.117620000000    -0.0077571  
C451     C      0.297830000000     0.523810000000     0.118650000000    -0.0455855  
C452     C      0.277110000000     0.544400000000     0.146210000000    -0.0456255  
C453     C      0.262350000000     0.595850000000     0.187920000000    -0.0244847  
C454     C      0.286010000000     0.574290000000     0.160350000000     0.0118343  
C455     C      0.303460000000     0.637270000000     0.184550000000    -0.0251763  
C456     C      0.316140000000     0.583570000000     0.146120000000    -0.00813812 
C457     C      0.329520000000     0.784850000000     0.420390000000     0.0200819  
C458     C      0.375550000000     0.793890000000     0.353980000000    -0.0412394  
C459     C      0.383980000000     0.842760000000     0.289620000000    -0.0262428  
C460     C      0.364750000000     0.822610000000     0.334850000000     0.0196802  
C461     C      0.343420000000     0.882190000000     0.294580000000    -0.0261436  
C462     C      0.324670000000     0.861710000000     0.340070000000     0.0195232  
C463     C      0.358190000000     0.775280000000     0.396650000000    -0.041948   
C464     C      0.335910000000     0.832730000000     0.358600000000    -0.00404015 
C465     C      0.296160000000     0.871410000000     0.364460000000    -0.0414295  
C466     C      0.278840000000     0.852830000000     0.407260000000    -0.0415216  
C467     C      0.270430000000     0.804000000000     0.471770000000    -0.0264647  
C468     C      0.289570000000     0.824060000000     0.426120000000     0.0199575  
C469     C      0.311030000000     0.764630000000     0.466980000000    -0.0268779  
C470     C      0.318330000000     0.813870000000     0.402070000000    -0.00442408 
C471     C      0.365210000000     0.574010000000     0.338690000000     0.0202032  
C472     C      0.357900000000     0.621080000000     0.400990000000    -0.0412698  
C473     C      0.309970000000     0.631440000000     0.468890000000    -0.0261883  
C474     C      0.329150000000     0.611220000000     0.423700000000     0.0195292  
C475     C      0.269470000000     0.591880000000     0.471050000000    -0.0261933  
C476     C      0.289060000000     0.572080000000     0.425800000000     0.0196953  
C477     C      0.375660000000     0.602740000000     0.358590000000    -0.0416029  
C478     C      0.318100000000     0.582370000000     0.403710000000    -0.00402814 
C479     C      0.278450000000     0.543500000000     0.405230000000    -0.0413288  
C480     C      0.296180000000     0.525190000000     0.362670000000    -0.041543   
C481     C      0.344130000000     0.514830000000     0.294810000000    -0.0262401  
C482     C      0.324980000000     0.535000000000     0.340220000000     0.0197405  
C483     C      0.384570000000     0.554390000000     0.292590000000    -0.0268825  
C484     C      0.336100000000     0.563790000000     0.360490000000    -0.00435505 
C485     C      0.039210000000     0.822170000000     0.338310000000     0.0178678  
C486     C      0.046300000000     0.775560000000     0.402710000000    -0.0449836  
C487     C      0.094080000000     0.765600000000     0.471810000000    -0.0265131  
C488     C      0.074990000000     0.785540000000     0.425580000000     0.0175398  
C489     C      0.134590000000     0.805090000000     0.473060000000    -0.02636    
C490     C      0.115070000000     0.824650000000     0.426910000000     0.0174927  
C491     C      0.028710000000     0.793570000000     0.359130000000    -0.044926   
C492     C      0.086100000000     0.814240000000     0.404660000000    -0.00714175 
C493     C      0.125700000000     0.853120000000     0.405500000000    -0.0448859  
C494     C      0.108120000000     0.871130000000     0.361910000000    -0.0451681  
C495     C      0.060310000000     0.881130000000     0.292920000000    -0.0263832  
C496     C      0.079370000000     0.861200000000     0.339290000000     0.0173375  
C497     C      0.019980000000     0.841500000000     0.291070000000    -0.0257911  
C498     C      0.068220000000     0.832540000000     0.360390000000    -0.00723872 
C499     C      0.286460000000     0.821930000000     0.161590000000     0.0122845  
C500     C      0.298370000000     0.872290000000     0.119260000000    -0.0456778  
C501     C      0.350070000000     0.886680000000     0.076070000000    -0.0244137  
C502     C      0.328300000000     0.863240000000     0.103480000000     0.011853   
C503     C      0.391020000000     0.844930000000     0.071950000000    -0.0244142  
C504     C      0.367370000000     0.823650000000     0.100680000000     0.0115509  
C505     C      0.277700000000     0.851870000000     0.147620000000    -0.0457466  
C506     C      0.337470000000     0.833220000000     0.116380000000    -0.00789479 
C507     C      0.376100000000     0.793690000000     0.114480000000    -0.0454926  
C508     C      0.355450000000     0.773290000000     0.143000000000    -0.045844   
C509     C      0.303780000000     0.758950000000     0.186460000000    -0.0245311  
C510     C      0.325530000000     0.782340000000     0.158780000000     0.0121844  
C511     C      0.262590000000     0.800390000000     0.188370000000    -0.0251295  
C512     C      0.316360000000     0.812370000000     0.145840000000    -0.00824277 
C513     C      0.895820000000     0.391580000000     0.504680000000     0.394328   
C514     C      0.508300000000     0.004170000000     0.505700000000     0.395605   
C515     C      0.510080000000     0.390100000000     0.495870000000     0.395024   
C516     C      0.895710000000     0.004240000000     0.506570000000     0.395638   
C517     C      0.895660000000     0.003590000000     0.840490000000     0.396281   
C518     C      0.508420000000     0.392690000000     0.837040000000     0.39059    
C519     C      0.895230000000     0.393200000000     0.839020000000     0.395224   
C520     C      0.508050000000     0.004370000000     0.840320000000     0.3964     
C521     C      0.758060000000     0.254340000000     0.758030000000     0.394355   
C522     C      0.645280000000     0.142040000000     0.759780000000     0.394269   
C523     C      0.757980000000     0.141950000000     0.757220000000     0.394214   
C524     C      0.643800000000     0.256140000000     0.768270000000     0.394679   
C525     C      0.645840000000     0.253860000000     0.927160000000     0.390838   
C526     C      0.758400000000     0.142670000000     0.923310000000     0.394963   
C527     C      0.759050000000     0.253380000000     0.923510000000     0.394953   
C528     C      0.646170000000     0.142230000000     0.925300000000     0.395      
C529     C      0.575980000000     0.032900000000     0.603000000000     0.0116546  
C530     C      0.626550000000     0.044930000000     0.646350000000    -0.045752   
C531     C      0.640710000000     0.096210000000     0.689830000000    -0.0244293  
C532     C      0.617280000000     0.074590000000     0.661680000000     0.0118752  
C533     C      0.598600000000     0.136870000000     0.691430000000    -0.0243052  
C534     C      0.577280000000     0.113280000000     0.662810000000     0.0117789  
C535     C      0.606150000000     0.024320000000     0.617690000000    -0.0453153  
C536     C      0.587060000000     0.083610000000     0.647800000000    -0.00807461 
C537     C      0.547080000000     0.121820000000     0.648320000000    -0.0456842  
C538     C      0.526700000000     0.101240000000     0.619550000000    -0.0456259  
C539     C      0.512600000000     0.049980000000     0.575830000000    -0.0242437  
C540     C      0.535980000000     0.071590000000     0.604200000000     0.01174    
C541     C      0.554390000000     0.009090000000     0.576350000000    -0.0221552  
C542     C      0.566210000000     0.062570000000     0.618090000000    -0.00782764 
C543     C      0.615580000000     0.071970000000     0.925080000000     0.020238   
C544     C      0.607770000000     0.025570000000     0.860560000000    -0.0410001  
C545     C      0.559370000000     0.015970000000     0.793780000000    -0.0246562  
C546     C      0.578890000000     0.035690000000     0.839360000000     0.019301   
C547     C      0.518950000000     0.055620000000     0.794920000000    -0.0261449  
C548     C      0.538860000000     0.074900000000     0.840610000000     0.0194987  
C549     C      0.625850000000     0.043440000000     0.903330000000    -0.0418052  
C550     C      0.568020000000     0.064340000000     0.861210000000    -0.00387156 
C551     C      0.528440000000     0.103280000000     0.863030000000    -0.0414519  
C552     C      0.546490000000     0.121120000000     0.905920000000    -0.0415842  
C553     C      0.594950000000     0.130770000000     0.972490000000    -0.0260923  
C554     C      0.575430000000     0.111060000000     0.926850000000     0.0198183  
C555     C      0.635270000000     0.091090000000     0.971560000000    -0.0267352  
C556     C      0.586340000000     0.082460000000     0.904770000000    -0.00443823 
C557     C      0.614530000000     0.324720000000     0.676640000000     0.012354   
C558     C      0.607780000000     0.370420000000     0.609640000000    -0.0462744  
C559     C      0.561410000000     0.380160000000     0.539410000000    -0.0247102  
C560     C      0.579130000000     0.360250000000     0.587260000000     0.012133   
C561     C      0.519640000000     0.339020000000     0.538910000000    -0.0246426  
C562     C      0.539330000000     0.321340000000     0.587370000000     0.0120072  
C563     C      0.625150000000     0.352990000000     0.654210000000    -0.0464628  
C564     C      0.567980000000     0.332010000000     0.609420000000    -0.00874855 
C565     C      0.528640000000     0.293130000000     0.610060000000    -0.0463038  
C566     C      0.546020000000     0.275700000000     0.654640000000    -0.0463816  
C567     C      0.592440000000     0.265960000000     0.724800000000    -0.0247558  
C568     C      0.574680000000     0.285860000000     0.676970000000     0.0121059  
C569     C      0.633940000000     0.307320000000     0.726150000000    -0.0253651  
C570     C      0.585840000000     0.314090000000     0.654730000000    -0.00898087 
C571     C      0.825500000000     0.113500000000     0.659720000000     0.0126347  
C572     C      0.876320000000     0.101720000000     0.617470000000    -0.0453058  
C573     C      0.891150000000     0.050220000000     0.576230000000    -0.0240778  
C574     C      0.867450000000     0.071810000000     0.603430000000     0.0114044  
C575     C      0.849750000000     0.008990000000     0.577510000000    -0.0212879  
C576     C      0.827950000000     0.032590000000     0.604150000000     0.0111111  
C577     C      0.855590000000     0.122320000000     0.644910000000    -0.0459264  
C578     C      0.837310000000     0.062530000000     0.617620000000    -0.00730959 
C579     C      0.797830000000     0.023810000000     0.618650000000    -0.0449519  
C580     C      0.777110000000     0.044400000000     0.646210000000    -0.045834   
C581     C      0.762350000000     0.095850000000     0.687920000000    -0.0245216  
C582     C      0.786010000000     0.074290000000     0.660340000000     0.0120194  
C583     C      0.803460000000     0.137270000000     0.684550000000    -0.0252674  
C584     C      0.816140000000     0.083570000000     0.646120000000    -0.00834928 
C585     C      0.829520000000     0.284850000000     0.920390000000     0.0200103  
C586     C      0.875550000000     0.293890000000     0.853980000000    -0.0412887  
C587     C      0.883980000000     0.342760000000     0.789620000000    -0.02629    
C588     C      0.864750000000     0.322610000000     0.834850000000     0.0197041  
C589     C      0.843420000000     0.382190000000     0.794580000000    -0.0261242  
C590     C      0.824670000000     0.361710000000     0.840070000000     0.0195692  
C591     C      0.858190000000     0.275280000000     0.896650000000    -0.0419015  
C592     C      0.835910000000     0.332730000000     0.858600000000    -0.00406808 
C593     C      0.796160000000     0.371410000000     0.864460000000    -0.0414269  
C594     C      0.778840000000     0.352830000000     0.907260000000    -0.0414375  
C595     C      0.770430000000     0.304000000000     0.971770000000    -0.0262221  
C596     C      0.789570000000     0.324060000000     0.926120000000     0.0199048  
C597     C      0.811030000000     0.264630000000     0.966980000000    -0.0266271  
C598     C      0.818330000000     0.313870000000     0.902070000000    -0.00434304 
C599     C      0.865210000000     0.074010000000     0.838690000000     0.0200879  
C600     C      0.857900000000     0.121080000000     0.900990000000    -0.0413317  
C601     C      0.809970000000     0.131440000000     0.968890000000    -0.0259383  
C602     C      0.829150000000     0.111230000000     0.923700000000     0.0195308  
C603     C      0.769470000000     0.091880000000     0.971050000000    -0.0260299  
C604     C      0.789060000000     0.072080000000     0.925800000000     0.0197702  
C605     C      0.875660000000     0.102740000000     0.858590000000    -0.041542   
C606     C      0.818100000000     0.082370000000     0.903710000000    -0.00405198 
C607     C      0.778450000000     0.043500000000     0.905230000000    -0.0413435  
C608     C      0.796180000000     0.025190000000     0.862660000000    -0.0411871  
C609     C      0.844130000000     0.014830000000     0.794810000000    -0.0245746  
C610     C      0.824980000000     0.035000000000     0.840210000000     0.0194037  
C611     C      0.884570000000     0.054390000000     0.792580000000    -0.026814   
C612     C      0.836100000000     0.063790000000     0.860490000000    -0.00415316 
C613     C      0.539210000000     0.322170000000     0.838310000000     0.0182033  
C614     C      0.546300000000     0.275560000000     0.902710000000    -0.0448394  
C615     C      0.594090000000     0.265600000000     0.971810000000    -0.0261289  
C616     C      0.574990000000     0.285540000000     0.925580000000     0.0173471  
C617     C      0.634590000000     0.305090000000     0.973070000000    -0.0261225  
C618     C      0.615070000000     0.324650000000     0.926910000000     0.0173949  
C619     C      0.528710000000     0.293570000000     0.859130000000    -0.0452509  
C620     C      0.586100000000     0.314240000000     0.904660000000    -0.00696404 
C621     C      0.625700000000     0.353120000000     0.905500000000    -0.0447679  
C622     C      0.608120000000     0.371130000000     0.861910000000    -0.0452409  
C623     C      0.560310000000     0.381130000000     0.792920000000    -0.0264837  
C624     C      0.579370000000     0.361200000000     0.839290000000     0.0174942  
C625     C      0.519980000000     0.341500000000     0.791070000000    -0.0271529  
C626     C      0.568220000000     0.332540000000     0.860390000000    -0.00744682 
C627     C      0.786460000000     0.321930000000     0.661590000000     0.0123024  
C628     C      0.798370000000     0.372290000000     0.619250000000    -0.0456732  
C629     C      0.850070000000     0.386680000000     0.576080000000    -0.0244119  
C630     C      0.828290000000     0.363240000000     0.603480000000     0.0119052  
C631     C      0.891020000000     0.344930000000     0.571950000000    -0.0243632  
C632     C      0.867370000000     0.323650000000     0.600680000000     0.0115316  
C633     C      0.777700000000     0.351870000000     0.647630000000    -0.0457184  
C634     C      0.837470000000     0.333220000000     0.616380000000    -0.00788266 
C635     C      0.876100000000     0.293690000000     0.614480000000    -0.0454851  
C636     C      0.855450000000     0.273290000000     0.643010000000    -0.0458744  
C637     C      0.803780000000     0.258950000000     0.686460000000    -0.0245341  
C638     C      0.825530000000     0.282350000000     0.658780000000     0.0122006  
C639     C      0.762590000000     0.300390000000     0.688370000000    -0.0251424  
C640     C      0.816360000000     0.312370000000     0.645840000000    -0.00825662 
C641     C      0.895820000000     0.391580000000     0.004680000000     0.393875   
C642     C      0.508300000000     0.004170000000     0.005700000000     0.395136   
C643     C      0.510080000000     0.390100000000     0.995870000000     0.39519    
C644     C      0.895710000000     0.004240000000     0.006570000000     0.395211   
C645     C      0.895660000000     0.003590000000     0.340490000000     0.396274   
C646     C      0.508420000000     0.392690000000     0.337040000000     0.390571   
C647     C      0.895230000000     0.393200000000     0.339020000000     0.395212   
C648     C      0.508050000000     0.004370000000     0.340310000000     0.396359   
C649     C      0.758060000000     0.254340000000     0.258030000000     0.394352   
C650     C      0.645280000000     0.142040000000     0.259780000000     0.394289   
C651     C      0.757980000000     0.141950000000     0.257220000000     0.394234   
C652     C      0.643800000000     0.256140000000     0.268270000000     0.394696   
C653     C      0.645840000000     0.253860000000     0.427170000000     0.390773   
C654     C      0.758400000000     0.142670000000     0.423320000000     0.394874   
C655     C      0.759050000000     0.253380000000     0.423510000000     0.394927   
C656     C      0.646170000000     0.142230000000     0.425300000000     0.394973   
C657     C      0.575980000000     0.032900000000     0.103010000000     0.0116383  
C658     C      0.626550000000     0.044930000000     0.146350000000    -0.045759   
C659     C      0.640710000000     0.096210000000     0.189830000000    -0.024423   
C660     C      0.617280000000     0.074590000000     0.161680000000     0.0118688  
C661     C      0.598600000000     0.136870000000     0.191430000000    -0.0242955  
C662     C      0.577280000000     0.113280000000     0.162800000000     0.01177    
C663     C      0.606150000000     0.024320000000     0.117690000000    -0.0453267  
C664     C      0.587060000000     0.083610000000     0.147800000000    -0.00807412 
C665     C      0.547080000000     0.121820000000     0.148320000000    -0.0456905  
C666     C      0.526700000000     0.101240000000     0.119550000000    -0.0456383  
C667     C      0.512600000000     0.049980000000     0.075830000000    -0.024263   
C668     C      0.535980000000     0.071590000000     0.104200000000     0.0117256  
C669     C      0.554390000000     0.009090000000     0.076350000000    -0.0221744  
C670     C      0.566210000000     0.062570000000     0.118090000000    -0.00783727 
C671     C      0.615580000000     0.071970000000     0.425080000000     0.0202887  
C672     C      0.607770000000     0.025570000000     0.360560000000    -0.0409886  
C673     C      0.559370000000     0.015970000000     0.293780000000    -0.0246483  
C674     C      0.578890000000     0.035690000000     0.339360000000     0.0192703  
C675     C      0.518950000000     0.055620000000     0.294920000000    -0.0261356  
C676     C      0.538860000000     0.074900000000     0.340600000000     0.0194652  
C677     C      0.625850000000     0.043440000000     0.403320000000    -0.0418579  
C678     C      0.568020000000     0.064340000000     0.361210000000    -0.00384742 
C679     C      0.528440000000     0.103280000000     0.363030000000    -0.0414374  
C680     C      0.546490000000     0.121120000000     0.405920000000    -0.0416438  
C681     C      0.594950000000     0.130770000000     0.472490000000    -0.0263393  
C682     C      0.575430000000     0.111060000000     0.426850000000     0.0198725  
C683     C      0.635270000000     0.091090000000     0.471560000000    -0.0269815  
C684     C      0.586340000000     0.082460000000     0.404770000000    -0.00451355 
C685     C      0.614530000000     0.324720000000     0.176640000000     0.0123398  
C686     C      0.607780000000     0.370420000000     0.109640000000    -0.0463292  
C687     C      0.561410000000     0.380160000000     0.039410000000    -0.0249514  
C688     C      0.579130000000     0.360250000000     0.087260000000     0.0121928  
C689     C      0.519640000000     0.339020000000     0.038910000000    -0.024887   
C690     C      0.539330000000     0.321340000000     0.087370000000     0.0120767  
C691     C      0.625150000000     0.352990000000     0.154210000000    -0.0464505  
C692     C      0.567980000000     0.332010000000     0.109420000000    -0.00881897 
C693     C      0.528640000000     0.293130000000     0.110050000000    -0.0463732  
C694     C      0.546020000000     0.275700000000     0.154640000000    -0.046363   
C695     C      0.592440000000     0.265960000000     0.224800000000    -0.0247472  
C696     C      0.574680000000     0.285860000000     0.176970000000     0.0120827  
C697     C      0.633940000000     0.307320000000     0.226150000000    -0.0253852  
C698     C      0.585840000000     0.314090000000     0.154740000000    -0.00895447 
C699     C      0.825500000000     0.113500000000     0.159710000000     0.0126249  
C700     C      0.876320000000     0.101720000000     0.117470000000    -0.045323   
C701     C      0.891150000000     0.050220000000     0.076240000000    -0.0240937  
C702     C      0.867450000000     0.071810000000     0.103430000000     0.0113935  
C703     C      0.849750000000     0.008990000000     0.077510000000    -0.021308   
C704     C      0.827950000000     0.032590000000     0.104150000000     0.0110992  
C705     C      0.855590000000     0.122320000000     0.144910000000    -0.0459296  
C706     C      0.837310000000     0.062530000000     0.117620000000    -0.00732181 
C707     C      0.797830000000     0.023810000000     0.118650000000    -0.0449686  
C708     C      0.777110000000     0.044400000000     0.146210000000    -0.0458399  
C709     C      0.762350000000     0.095850000000     0.187920000000    -0.0245162  
C710     C      0.786010000000     0.074290000000     0.160350000000     0.0120133  
C711     C      0.803460000000     0.137270000000     0.184550000000    -0.0252569  
C712     C      0.816140000000     0.083570000000     0.146120000000    -0.00834742 
C713     C      0.829520000000     0.284850000000     0.420390000000     0.020068   
C714     C      0.875550000000     0.293890000000     0.353980000000    -0.0412775  
C715     C      0.883980000000     0.342760000000     0.289620000000    -0.0262851  
C716     C      0.864750000000     0.322610000000     0.334850000000     0.0196758  
C717     C      0.843420000000     0.382190000000     0.294580000000    -0.0261193  
C718     C      0.824670000000     0.361710000000     0.340070000000     0.0195404  
C719     C      0.858190000000     0.275280000000     0.396650000000    -0.0419596  
C720     C      0.835910000000     0.332730000000     0.358600000000    -0.00404798 
C721     C      0.796160000000     0.371410000000     0.364460000000    -0.0414172  
C722     C      0.778840000000     0.352830000000     0.407260000000    -0.0414954  
C723     C      0.770430000000     0.304000000000     0.471770000000    -0.026466   
C724     C      0.789570000000     0.324060000000     0.426120000000     0.0199609  
C725     C      0.811030000000     0.264630000000     0.466980000000    -0.0268744  
C726     C      0.818330000000     0.313870000000     0.402070000000    -0.00441932 
C727     C      0.865210000000     0.074010000000     0.338690000000     0.0200452  
C728     C      0.857900000000     0.121080000000     0.400990000000    -0.0413923  
C729     C      0.809970000000     0.131440000000     0.468890000000    -0.0261846  
C730     C      0.829150000000     0.111230000000     0.423700000000     0.019589   
C731     C      0.769470000000     0.091880000000     0.471050000000    -0.0262755  
C732     C      0.789060000000     0.072080000000     0.425800000000     0.0198262  
C733     C      0.875660000000     0.102740000000     0.358590000000    -0.0415238  
C734     C      0.818100000000     0.082370000000     0.403710000000    -0.00413117 
C735     C      0.778450000000     0.043500000000     0.405230000000    -0.0414033  
C736     C      0.796180000000     0.025190000000     0.362670000000    -0.0411654  
C737     C      0.844130000000     0.014830000000     0.294810000000    -0.0245647  
C738     C      0.824980000000     0.035000000000     0.340220000000     0.0193682  
C739     C      0.884570000000     0.054390000000     0.292590000000    -0.0267624  
C740     C      0.836100000000     0.063790000000     0.360490000000    -0.0041262  
C741     C      0.539210000000     0.322170000000     0.338310000000     0.0181768  
C742     C      0.546300000000     0.275560000000     0.402710000000    -0.0448933  
C743     C      0.594090000000     0.265600000000     0.471810000000    -0.0263692  
C744     C      0.574990000000     0.285540000000     0.425580000000     0.0174037  
C745     C      0.634590000000     0.305090000000     0.473060000000    -0.0263399  
C746     C      0.615070000000     0.324650000000     0.426910000000     0.0174461  
C747     C      0.528710000000     0.293570000000     0.359130000000    -0.0452242  
C748     C      0.586100000000     0.314240000000     0.404660000000    -0.0070311  
C749     C      0.625700000000     0.353120000000     0.405500000000    -0.0448187  
C750     C      0.608120000000     0.371130000000     0.361910000000    -0.0452163  
C751     C      0.560310000000     0.381130000000     0.292920000000    -0.0264783  
C752     C      0.579370000000     0.361200000000     0.339290000000     0.0174687  
C753     C      0.519980000000     0.341500000000     0.291070000000    -0.0271468  
C754     C      0.568220000000     0.332540000000     0.360390000000    -0.00741925 
C755     C      0.786460000000     0.321930000000     0.161590000000     0.012291   
C756     C      0.798370000000     0.372290000000     0.119260000000    -0.0456774  
C757     C      0.850070000000     0.386680000000     0.076070000000    -0.0244249  
C758     C      0.828290000000     0.363240000000     0.103480000000     0.0118816  
C759     C      0.891020000000     0.344930000000     0.071950000000    -0.024381   
C760     C      0.867370000000     0.323650000000     0.100680000000     0.0115157  
C761     C      0.777700000000     0.351870000000     0.147620000000    -0.045719   
C762     C      0.837470000000     0.333220000000     0.116380000000    -0.00788964 
C763     C      0.876100000000     0.293690000000     0.114480000000    -0.0454959  
C764     C      0.855450000000     0.273290000000     0.143000000000    -0.0458739  
C765     C      0.803780000000     0.258950000000     0.186460000000    -0.0245264  
C766     C      0.825530000000     0.282350000000     0.158780000000     0.0121889  
C767     C      0.762590000000     0.300390000000     0.188370000000    -0.0251347  
C768     C      0.816360000000     0.312370000000     0.145840000000    -0.00825387 
C769     C      0.895820000000     0.891580000000     0.504680000000     0.394108   
C770     C      0.508300000000     0.504170000000     0.505700000000     0.394139   
C771     C      0.510080000000     0.890100000000     0.495870000000     0.395008   
C772     C      0.895710000000     0.504240000000     0.506570000000     0.394153   
C773     C      0.895660000000     0.503590000000     0.840490000000     0.394844   
C774     C      0.508420000000     0.892690000000     0.837040000000     0.390569   
C775     C      0.895230000000     0.893200000000     0.839020000000     0.39513    
C776     C      0.508050000000     0.504370000000     0.840320000000     0.394986   
C777     C      0.758060000000     0.754340000000     0.758030000000     0.394361   
C778     C      0.645280000000     0.642040000000     0.759780000000     0.394277   
C779     C      0.757980000000     0.641950000000     0.757220000000     0.39429    
C780     C      0.643800000000     0.756140000000     0.768270000000     0.394685   
C781     C      0.645840000000     0.753860000000     0.927160000000     0.390844   
C782     C      0.758400000000     0.642660000000     0.923310000000     0.394927   
C783     C      0.759050000000     0.753380000000     0.923510000000     0.39496    
C784     C      0.646170000000     0.642230000000     0.925300000000     0.395009   
C785     C      0.575980000000     0.532900000000     0.603000000000     0.0124274  
C786     C      0.626550000000     0.544930000000     0.646350000000    -0.0455513  
C787     C      0.640710000000     0.596210000000     0.689830000000    -0.024363   
C788     C      0.617280000000     0.574590000000     0.661680000000     0.0117118  
C789     C      0.598600000000     0.636880000000     0.691430000000    -0.0243688  
C790     C      0.577280000000     0.613280000000     0.662810000000     0.011758   
C791     C      0.606150000000     0.524320000000     0.617690000000    -0.0458972  
C792     C      0.587060000000     0.583610000000     0.647800000000    -0.00790121 
C793     C      0.547080000000     0.621830000000     0.648320000000    -0.0456888  
C794     C      0.526700000000     0.601240000000     0.619550000000    -0.0456794  
C795     C      0.512600000000     0.549970000000     0.575830000000    -0.0243351  
C796     C      0.535980000000     0.571590000000     0.604200000000     0.0118949  
C797     C      0.554390000000     0.509090000000     0.576350000000    -0.0252114  
C798     C      0.566210000000     0.562570000000     0.618090000000    -0.00821714 
C799     C      0.615580000000     0.571970000000     0.925080000000     0.0201453  
C800     C      0.607770000000     0.525570000000     0.860560000000    -0.0413692  
C801     C      0.559370000000     0.515970000000     0.793780000000    -0.0262639  
C802     C      0.578890000000     0.535690000000     0.839360000000     0.0196573  
C803     C      0.518950000000     0.555620000000     0.794920000000    -0.0262429  
C804     C      0.538860000000     0.574900000000     0.840610000000     0.0196203  
C805     C      0.625850000000     0.543450000000     0.903330000000    -0.0417348  
C806     C      0.568020000000     0.564340000000     0.861210000000    -0.00407493 
C807     C      0.528440000000     0.603280000000     0.863030000000    -0.0415056  
C808     C      0.546490000000     0.621120000000     0.905920000000    -0.0415388  
C809     C      0.594950000000     0.630770000000     0.972490000000    -0.0260728  
C810     C      0.575430000000     0.611060000000     0.926850000000     0.0197792  
C811     C      0.635270000000     0.591090000000     0.971560000000    -0.0266994  
C812     C      0.586340000000     0.582460000000     0.904770000000    -0.00435103 
C813     C      0.614530000000     0.824720000000     0.676640000000     0.0123523  
C814     C      0.607780000000     0.870420000000     0.609640000000    -0.0462781  
C815     C      0.561410000000     0.880160000000     0.539410000000    -0.0246898  
C816     C      0.579130000000     0.860250000000     0.587260000000     0.0121043  
C817     C      0.519640000000     0.839020000000     0.538910000000    -0.0246444  
C818     C      0.539330000000     0.821340000000     0.587370000000     0.0120141  
C819     C      0.625150000000     0.852990000000     0.654210000000    -0.0464848  
C820     C      0.567980000000     0.832010000000     0.609420000000    -0.00874495 
C821     C      0.528640000000     0.793130000000     0.610060000000    -0.0463211  
C822     C      0.546020000000     0.775700000000     0.654640000000    -0.046326   
C823     C      0.592440000000     0.765960000000     0.724800000000    -0.0247452  
C824     C      0.574680000000     0.785860000000     0.676970000000     0.0120909  
C825     C      0.633940000000     0.807320000000     0.726150000000    -0.0253588  
C826     C      0.585840000000     0.814090000000     0.654730000000    -0.0089732  
C827     C      0.825500000000     0.613500000000     0.659720000000     0.0125519  
C828     C      0.876320000000     0.601720000000     0.617470000000    -0.0453949  
C829     C      0.891150000000     0.550220000000     0.576230000000    -0.0242663  
C830     C      0.867450000000     0.571810000000     0.603430000000     0.0116183  
C831     C      0.849750000000     0.508990000000     0.577510000000    -0.0243689  
C832     C      0.827950000000     0.532590000000     0.604150000000     0.0119057  
C833     C      0.855590000000     0.622330000000     0.644910000000    -0.0458943  
C834     C      0.837310000000     0.562530000000     0.617620000000    -0.00773073 
C835     C      0.797830000000     0.523810000000     0.618650000000    -0.0455454  
C836     C      0.777110000000     0.544400000000     0.646210000000    -0.0456276  
C837     C      0.762350000000     0.595850000000     0.687920000000    -0.0244912  
C838     C      0.786010000000     0.574290000000     0.660340000000     0.0118509  
C839     C      0.803460000000     0.637270000000     0.684550000000    -0.025184   
C840     C      0.816140000000     0.583570000000     0.646120000000    -0.0081462  
C841     C      0.829520000000     0.784850000000     0.920390000000     0.0200242  
C842     C      0.875550000000     0.793890000000     0.853980000000    -0.0412542  
C843     C      0.883980000000     0.842760000000     0.789620000000    -0.0262325  
C844     C      0.864750000000     0.822610000000     0.834850000000     0.0196852  
C845     C      0.843420000000     0.882190000000     0.794580000000    -0.0261463  
C846     C      0.824670000000     0.861710000000     0.840070000000     0.0195532  
C847     C      0.858190000000     0.775280000000     0.896650000000    -0.0419132  
C848     C      0.835910000000     0.832730000000     0.858600000000    -0.00405008 
C849     C      0.796160000000     0.871410000000     0.864460000000    -0.041433   
C850     C      0.778840000000     0.852830000000     0.907260000000    -0.0414614  
C851     C      0.770430000000     0.804000000000     0.971770000000    -0.02622    
C852     C      0.789570000000     0.824060000000     0.926120000000     0.0199075  
C853     C      0.811030000000     0.764630000000     0.966980000000    -0.0266283  
C854     C      0.818330000000     0.813870000000     0.902070000000    -0.00435064 
C855     C      0.865210000000     0.574010000000     0.838690000000     0.0202265  
C856     C      0.857900000000     0.621080000000     0.900990000000    -0.0412238  
C857     C      0.809970000000     0.631440000000     0.968890000000    -0.0258875  
C858     C      0.829150000000     0.611220000000     0.923700000000     0.0194572  
C859     C      0.769470000000     0.591880000000     0.971050000000    -0.025988   
C860     C      0.789060000000     0.572080000000     0.925800000000     0.0196581  
C861     C      0.875660000000     0.602740000000     0.858590000000    -0.041627   
C862     C      0.818100000000     0.582370000000     0.903710000000    -0.00394902 
C863     C      0.778450000000     0.543500000000     0.905230000000    -0.0412719  
C864     C      0.796180000000     0.525190000000     0.862660000000    -0.0415557  
C865     C      0.844130000000     0.514830000000     0.794810000000    -0.0262479  
C866     C      0.824980000000     0.535000000000     0.840210000000     0.0197783  
C867     C      0.884570000000     0.554390000000     0.792580000000    -0.0269207  
C868     C      0.836100000000     0.563790000000     0.860490000000    -0.00437276 
C869     C      0.539210000000     0.822170000000     0.838310000000     0.0182047  
C870     C      0.546300000000     0.775560000000     0.902710000000    -0.0448364  
C871     C      0.594090000000     0.765600000000     0.971810000000    -0.0261276  
C872     C      0.574990000000     0.785540000000     0.925580000000     0.0173542  
C873     C      0.634590000000     0.805090000000     0.973070000000    -0.02612    
C874     C      0.615070000000     0.824650000000     0.926910000000     0.0173979  
C875     C      0.528710000000     0.793570000000     0.859130000000    -0.0452438  
C876     C      0.586100000000     0.814240000000     0.904660000000    -0.00696664 
C877     C      0.625700000000     0.853120000000     0.905500000000    -0.0447912  
C878     C      0.608120000000     0.871130000000     0.861910000000    -0.0452405  
C879     C      0.560310000000     0.881130000000     0.792920000000    -0.0264653  
C880     C      0.579370000000     0.861200000000     0.839290000000     0.0174692  
C881     C      0.519980000000     0.841500000000     0.791070000000    -0.0271502  
C882     C      0.568220000000     0.832540000000     0.860390000000    -0.0074339  
C883     C      0.786460000000     0.821930000000     0.661590000000     0.012302   
C884     C      0.798370000000     0.872290000000     0.619250000000    -0.0456735  
C885     C      0.850070000000     0.886680000000     0.576080000000    -0.0243955  
C886     C      0.828290000000     0.863240000000     0.603480000000     0.0118767  
C887     C      0.891020000000     0.844930000000     0.571950000000    -0.0243661  
C888     C      0.867370000000     0.823650000000     0.600680000000     0.0115326  
C889     C      0.777700000000     0.851870000000     0.647630000000    -0.0457422  
C890     C      0.837470000000     0.833220000000     0.616380000000    -0.00787368 
C891     C      0.876100000000     0.793690000000     0.614480000000    -0.0454792  
C892     C      0.855450000000     0.773290000000     0.643010000000    -0.0458692  
C893     C      0.803780000000     0.758950000000     0.686460000000    -0.0245329  
C894     C      0.825530000000     0.782340000000     0.658780000000     0.0122006  
C895     C      0.762590000000     0.800390000000     0.688370000000    -0.0251367  
C896     C      0.816360000000     0.812370000000     0.645840000000    -0.0082508  
C897     C      0.895820000000     0.891580000000     0.004680000000     0.393657   
C898     C      0.508300000000     0.504170000000     0.005700000000     0.39367    
C899     C      0.510080000000     0.890100000000     0.995870000000     0.395174   
C900     C      0.895710000000     0.504240000000     0.006570000000     0.393725   
C901     C      0.895660000000     0.503590000000     0.340490000000     0.394837   
C902     C      0.508420000000     0.892690000000     0.337040000000     0.390549   
C903     C      0.895230000000     0.893200000000     0.339020000000     0.395118   
C904     C      0.508050000000     0.504370000000     0.340310000000     0.394946   
C905     C      0.758060000000     0.754340000000     0.258030000000     0.394358   
C906     C      0.645280000000     0.642040000000     0.259780000000     0.394297   
C907     C      0.757980000000     0.641950000000     0.257220000000     0.39431    
C908     C      0.643800000000     0.756140000000     0.268270000000     0.394703   
C909     C      0.645840000000     0.753860000000     0.427170000000     0.39078    
C910     C      0.758400000000     0.642660000000     0.423320000000     0.394838   
C911     C      0.759050000000     0.753380000000     0.423510000000     0.394934   
C912     C      0.646170000000     0.642230000000     0.425300000000     0.394982   
C913     C      0.575980000000     0.532900000000     0.103010000000     0.0124108  
C914     C      0.626550000000     0.544930000000     0.146350000000    -0.0455584  
C915     C      0.640710000000     0.596210000000     0.189830000000    -0.0243567  
C916     C      0.617280000000     0.574590000000     0.161680000000     0.0117054  
C917     C      0.598600000000     0.636880000000     0.191430000000    -0.0243591  
C918     C      0.577280000000     0.613280000000     0.162800000000     0.0117492  
C919     C      0.606150000000     0.524320000000     0.117690000000    -0.0459084  
C920     C      0.587060000000     0.583610000000     0.147800000000    -0.00790079 
C921     C      0.547080000000     0.621830000000     0.148320000000    -0.0456952  
C922     C      0.526700000000     0.601240000000     0.119550000000    -0.0456917  
C923     C      0.512600000000     0.549970000000     0.075830000000    -0.0243544  
C924     C      0.535980000000     0.571590000000     0.104200000000     0.0118805  
C925     C      0.554390000000     0.509090000000     0.076350000000    -0.0252298  
C926     C      0.566210000000     0.562570000000     0.118090000000    -0.00822663 
C927     C      0.615580000000     0.571970000000     0.425080000000     0.0201961  
C928     C      0.607770000000     0.525570000000     0.360560000000    -0.0413577  
C929     C      0.559370000000     0.515970000000     0.293780000000    -0.0262556  
C930     C      0.578890000000     0.535690000000     0.339360000000     0.0196265  
C931     C      0.518950000000     0.555620000000     0.294920000000    -0.0262336  
C932     C      0.538860000000     0.574900000000     0.340600000000     0.0195867  
C933     C      0.625850000000     0.543450000000     0.403320000000    -0.0417875  
C934     C      0.568020000000     0.564340000000     0.361210000000    -0.00405073 
C935     C      0.528440000000     0.603280000000     0.363030000000    -0.041491   
C936     C      0.546490000000     0.621120000000     0.405920000000    -0.0415985  
C937     C      0.594950000000     0.630770000000     0.472490000000    -0.02632    
C938     C      0.575430000000     0.611060000000     0.426850000000     0.0198335  
C939     C      0.635270000000     0.591090000000     0.471560000000    -0.0269459  
C940     C      0.586340000000     0.582460000000     0.404770000000    -0.00442645 
C941     C      0.614530000000     0.824720000000     0.176640000000     0.0123382  
C942     C      0.607780000000     0.870420000000     0.109640000000    -0.0463327  
C943     C      0.561410000000     0.880160000000     0.039410000000    -0.0249303  
C944     C      0.579130000000     0.860250000000     0.087260000000     0.0121639  
C945     C      0.519640000000     0.839020000000     0.038910000000    -0.0248884  
C946     C      0.539330000000     0.821340000000     0.087370000000     0.0120835  
C947     C      0.625150000000     0.852990000000     0.154210000000    -0.0464725  
C948     C      0.567980000000     0.832010000000     0.109420000000    -0.00881521 
C949     C      0.528640000000     0.793130000000     0.110050000000    -0.0463904  
C950     C      0.546020000000     0.775700000000     0.154640000000    -0.0463075  
C951     C      0.592440000000     0.765960000000     0.224800000000    -0.0247366  
C952     C      0.574680000000     0.785860000000     0.176970000000     0.0120678  
C953     C      0.633940000000     0.807320000000     0.226150000000    -0.0253789  
C954     C      0.585840000000     0.814090000000     0.154740000000    -0.00894688 
C955     C      0.825500000000     0.613500000000     0.159710000000     0.0125422  
C956     C      0.876320000000     0.601720000000     0.117470000000    -0.0454121  
C957     C      0.891150000000     0.550220000000     0.076240000000    -0.0242822  
C958     C      0.867450000000     0.571810000000     0.103430000000     0.0116074  
C959     C      0.849750000000     0.508990000000     0.077510000000    -0.0243883  
C960     C      0.827950000000     0.532590000000     0.104150000000     0.0118937  
C961     C      0.855590000000     0.622330000000     0.144910000000    -0.0458975  
C962     C      0.837310000000     0.562530000000     0.117620000000    -0.00774286 
C963     C      0.797830000000     0.523810000000     0.118650000000    -0.045562   
C964     C      0.777110000000     0.544400000000     0.146210000000    -0.0456336  
C965     C      0.762350000000     0.595850000000     0.187920000000    -0.0244858  
C966     C      0.786010000000     0.574290000000     0.160350000000     0.0118448  
C967     C      0.803460000000     0.637270000000     0.184550000000    -0.0251735  
C968     C      0.816140000000     0.583570000000     0.146120000000    -0.0081444  
C969     C      0.829520000000     0.784850000000     0.420390000000     0.0200819  
C970     C      0.875550000000     0.793890000000     0.353980000000    -0.0412429  
C971     C      0.883980000000     0.842760000000     0.289620000000    -0.0262275  
C972     C      0.864750000000     0.822610000000     0.334850000000     0.0196569  
C973     C      0.843420000000     0.882190000000     0.294580000000    -0.0261414  
C974     C      0.824670000000     0.861710000000     0.340070000000     0.0195244  
C975     C      0.858190000000     0.775280000000     0.396650000000    -0.0419712  
C976     C      0.835910000000     0.832730000000     0.358600000000    -0.00403    
C977     C      0.796160000000     0.871410000000     0.364460000000    -0.0414233  
C978     C      0.778840000000     0.852830000000     0.407260000000    -0.0415191  
C979     C      0.770430000000     0.804000000000     0.471770000000    -0.0264634  
C980     C      0.789570000000     0.824060000000     0.426120000000     0.0199636  
C981     C      0.811030000000     0.764630000000     0.466980000000    -0.0268752  
C982     C      0.818330000000     0.813870000000     0.402070000000    -0.0044268  
C983     C      0.865210000000     0.574010000000     0.338690000000     0.0201838  
C984     C      0.857900000000     0.621080000000     0.400990000000    -0.0412845  
C985     C      0.809970000000     0.631440000000     0.468890000000    -0.026134   
C986     C      0.829150000000     0.611220000000     0.423700000000     0.0195154  
C987     C      0.769470000000     0.591880000000     0.471050000000    -0.0262338  
C988     C      0.789060000000     0.572080000000     0.425800000000     0.0197141  
C989     C      0.875660000000     0.602740000000     0.358590000000    -0.0416087  
C990     C      0.818100000000     0.582370000000     0.403710000000    -0.00402831 
C991     C      0.778450000000     0.543500000000     0.405230000000    -0.0413317  
C992     C      0.796180000000     0.525190000000     0.362670000000    -0.041534   
C993     C      0.844130000000     0.514830000000     0.294810000000    -0.0262376  
C994     C      0.824980000000     0.535000000000     0.340220000000     0.0197425  
C995     C      0.884570000000     0.554390000000     0.292590000000    -0.026869   
C996     C      0.836100000000     0.563790000000     0.360490000000    -0.0043457  
C997     C      0.539210000000     0.822170000000     0.338310000000     0.0181782  
C998     C      0.546300000000     0.775560000000     0.402710000000    -0.0448903  
C999     C      0.594090000000     0.765600000000     0.471810000000    -0.0263676  
C1000    C      0.574990000000     0.785540000000     0.425580000000     0.0174108  
C1001    C      0.634590000000     0.805090000000     0.473060000000    -0.026337   
C1002    C      0.615070000000     0.824650000000     0.426910000000     0.0174491  
C1003    C      0.528710000000     0.793570000000     0.359130000000    -0.0452172  
C1004    C      0.586100000000     0.814240000000     0.404660000000    -0.0070336  
C1005    C      0.625700000000     0.853120000000     0.405500000000    -0.0448419  
C1006    C      0.608120000000     0.871130000000     0.361910000000    -0.0452159  
C1007    C      0.560310000000     0.881130000000     0.292920000000    -0.0264599  
C1008    C      0.579370000000     0.861200000000     0.339290000000     0.0174438  
C1009    C      0.519980000000     0.841500000000     0.291070000000    -0.0271441  
C1010    C      0.568220000000     0.832540000000     0.360390000000    -0.00740637 
C1011    C      0.786460000000     0.821930000000     0.161590000000     0.0122906  
C1012    C      0.798370000000     0.872290000000     0.119260000000    -0.0456777  
C1013    C      0.850070000000     0.886680000000     0.076070000000    -0.0244083  
C1014    C      0.828290000000     0.863240000000     0.103480000000     0.0118532  
C1015    C      0.891020000000     0.844930000000     0.071950000000    -0.0243838  
C1016    C      0.867370000000     0.823650000000     0.100680000000     0.0115167  
C1017    C      0.777700000000     0.851870000000     0.147620000000    -0.0457427  
C1018    C      0.837470000000     0.833220000000     0.116380000000    -0.00788064 
C1019    C      0.876100000000     0.793690000000     0.114480000000    -0.04549    
C1020    C      0.855450000000     0.773290000000     0.143000000000    -0.0458686  
C1021    C      0.803780000000     0.758950000000     0.186460000000    -0.0245252  
C1022    C      0.825530000000     0.782340000000     0.158780000000     0.0121889  
C1023    C      0.762590000000     0.800390000000     0.188370000000    -0.025129   
C1024    C      0.816360000000     0.812370000000     0.145840000000    -0.00824804 
Co1      Co     0.406500000000     0.948130000000     0.424550000000     0.837794   
Co2      Co     0.997690000000     0.448150000000     0.922370000000     0.832294   
Co3      Co     0.452030000000     0.403000000000     0.420940000000     0.833892   
Co4      Co     0.451950000000     0.993120000000     0.923520000000     0.834543   
Co5      Co     0.202010000000     0.243310000000     0.842620000000     0.833849   
Co6      Co     0.201960000000     0.153170000000     0.840860000000     0.837253   
Co7      Co     0.247460000000     0.198110000000     0.839260000000     0.837522   
Co8      Co     0.156290000000     0.198220000000     0.842290000000     0.834142   
Co9      Co     0.406500000000     0.948130000000     0.924550000000     0.837767   
Co10     Co     0.997690000000     0.448150000000     0.422360000000     0.832252   
Co11     Co     0.452030000000     0.403000000000     0.920940000000     0.83389    
Co12     Co     0.451950000000     0.993120000000     0.423520000000     0.834597   
Co13     Co     0.202010000000     0.243310000000     0.342620000000     0.833838   
Co14     Co     0.201960000000     0.153170000000     0.340860000000     0.837241   
Co15     Co     0.247460000000     0.198110000000     0.339260000000     0.837481   
Co16     Co     0.156290000000     0.198220000000     0.342290000000     0.834084   
Co17     Co     0.406500000000     0.448130000000     0.424550000000     0.837655   
Co18     Co     0.997690000000     0.948150000000     0.922370000000     0.832343   
Co19     Co     0.452030000000     0.903000000000     0.420940000000     0.833774   
Co20     Co     0.451950000000     0.493120000000     0.923520000000     0.836865   
Co21     Co     0.202010000000     0.743310000000     0.842620000000     0.83386    
Co22     Co     0.201960000000     0.653170000000     0.840860000000     0.837276   
Co23     Co     0.247460000000     0.698110000000     0.839260000000     0.837523   
Co24     Co     0.156290000000     0.698220000000     0.842290000000     0.834156   
Co25     Co     0.406500000000     0.448130000000     0.924550000000     0.837628   
Co26     Co     0.997690000000     0.948150000000     0.422360000000     0.832301   
Co27     Co     0.452030000000     0.903000000000     0.920940000000     0.833773   
Co28     Co     0.451950000000     0.493120000000     0.423520000000     0.836918   
Co29     Co     0.202010000000     0.743310000000     0.342620000000     0.833849   
Co30     Co     0.201960000000     0.653170000000     0.340860000000     0.837264   
Co31     Co     0.247460000000     0.698110000000     0.339260000000     0.837483   
Co32     Co     0.156290000000     0.698220000000     0.342290000000     0.834097   
Co33     Co     0.906500000000     0.948130000000     0.424550000000     0.837645   
Co34     Co     0.497690000000     0.448150000000     0.922370000000     0.83422    
Co35     Co     0.952030000000     0.403000000000     0.420940000000     0.833975   
Co36     Co     0.951950000000     0.993120000000     0.923520000000     0.834565   
Co37     Co     0.702010000000     0.243310000000     0.842620000000     0.83386    
Co38     Co     0.701960000000     0.153170000000     0.840860000000     0.837262   
Co39     Co     0.747460000000     0.198110000000     0.839260000000     0.837526   
Co40     Co     0.656290000000     0.198220000000     0.842290000000     0.83415    
Co41     Co     0.906500000000     0.948130000000     0.924550000000     0.837618   
Co42     Co     0.497690000000     0.448150000000     0.422360000000     0.834179   
Co43     Co     0.952030000000     0.403000000000     0.920940000000     0.833974   
Co44     Co     0.951950000000     0.993120000000     0.423520000000     0.834618   
Co45     Co     0.702010000000     0.243310000000     0.342620000000     0.83385    
Co46     Co     0.701960000000     0.153170000000     0.340860000000     0.83725    
Co47     Co     0.747460000000     0.198110000000     0.339260000000     0.837485   
Co48     Co     0.656290000000     0.198220000000     0.342290000000     0.834091   
Co49     Co     0.906500000000     0.448130000000     0.424550000000     0.837505   
Co50     Co     0.497690000000     0.948150000000     0.922370000000     0.834324   
Co51     Co     0.952030000000     0.903000000000     0.420940000000     0.833859   
Co52     Co     0.951950000000     0.493120000000     0.923520000000     0.83694    
Co53     Co     0.702010000000     0.743310000000     0.842620000000     0.833872   
Co54     Co     0.701960000000     0.653170000000     0.840860000000     0.837285   
Co55     Co     0.747460000000     0.698110000000     0.839260000000     0.837528   
Co56     Co     0.656290000000     0.698220000000     0.842290000000     0.834163   
Co57     Co     0.906500000000     0.448130000000     0.924550000000     0.837477   
Co58     Co     0.497690000000     0.948150000000     0.422360000000     0.834282   
Co59     Co     0.952030000000     0.903000000000     0.920940000000     0.833858   
Co60     Co     0.951950000000     0.493120000000     0.423520000000     0.836993   
Co61     Co     0.702010000000     0.743310000000     0.342620000000     0.833862   
Co62     Co     0.701960000000     0.653170000000     0.340860000000     0.837273   
Co63     Co     0.747460000000     0.698110000000     0.339260000000     0.837488   
Co64     Co     0.656290000000     0.698220000000     0.342290000000     0.834105   
H1       H      0.086380000000     0.149750000000     0.732040000000     0.0530336  
H2       H      0.048690000000     0.993330000000     0.618770000000     0.041814   
H3       H      0.157030000000     0.101990000000     0.648310000000     0.042993   
H4       H      0.999010000000     0.061990000000     0.536070000000     0.0523321  
H5       H      0.113900000000     0.001430000000     0.607230000000     0.0366413  
H6       H      0.149830000000     0.037700000000     0.656460000000     0.0362523  
H7       H      0.154440000000     0.084190000000     0.729310000000     0.0535043  
H8       H      0.066490000000     0.995590000000     0.536620000000     0.0521516  
H9       H      0.039280000000     0.144660000000     0.659160000000     0.0363993  
H10      H      0.103660000000     0.153640000000     0.650580000000     0.0431734  
H11      H      0.003420000000     0.108450000000     0.609490000000     0.0363269  
H12      H      0.996140000000     0.044270000000     0.617150000000     0.0417566  
H13      H      0.024180000000     0.062070000000     0.741600000000     0.0421263  
H14      H      0.159980000000     0.086430000000     0.962790000000     0.0532637  
H15      H      0.064560000000     0.991500000000     0.801410000000     0.0518361  
H16      H      0.088810000000     0.125260000000     0.025880000000     0.0422525  
H17      H      0.148020000000     0.035040000000     0.919280000000     0.0387009  
H18      H      0.116310000000     0.003680000000     0.844120000000     0.0387218  
H19      H      0.065500000000     0.021490000000     0.740400000000     0.0422027  
H20      H      0.129910000000     0.084570000000     0.024770000000     0.0421873  
H21      H      0.006190000000     0.111610000000     0.847410000000     0.038644   
H22      H      0.994250000000     0.060460000000     0.803330000000     0.0519096  
H23      H      0.037880000000     0.142930000000     0.922690000000     0.0386404  
H24      H      0.089770000000     0.155240000000     0.964850000000     0.0530388  
H25      H      0.995480000000     0.338180000000     0.556980000000     0.0493554  
H26      H      0.133060000000     0.318960000000     0.776330000000     0.0502954  
H27      H      0.073360000000     0.380420000000     0.489440000000     0.0500604  
H28      H      0.091580000000     0.242160000000     0.705760000000     0.0503891  
H29      H      0.147080000000     0.361600000000     0.671340000000     0.0363313  
H30      H      0.116680000000     0.392110000000     0.592740000000     0.036258   
H31      H      0.062320000000     0.403970000000     0.558390000000     0.0504258  
H32      H      0.158160000000     0.308160000000     0.708520000000     0.0510676  
H33      H      0.006660000000     0.284570000000     0.593150000000     0.0364469  
H34      H      0.019730000000     0.327220000000     0.488870000000     0.0499145  
H35      H      0.037100000000     0.254040000000     0.671670000000     0.0364086  
H36      H      0.080480000000     0.265660000000     0.774770000000     0.0500247  
H37      H      0.337680000000     0.994890000000     0.538810000000     0.0519147  
H38      H      0.297170000000     0.152030000000     0.640760000000     0.0426952  
H39      H      0.407380000000     0.044790000000     0.618180000000     0.042499   
H40      H      0.248860000000     0.084000000000     0.728070000000     0.0534985  
H41      H      0.363010000000     0.145420000000     0.654230000000     0.0362703  
H42      H      0.399510000000     0.109140000000     0.607150000000     0.0360467  
H43      H      0.404910000000     0.062090000000     0.536560000000     0.053336   
H44      H      0.315410000000     0.151820000000     0.722590000000     0.0539306  
H45      H      0.290360000000     0.000760000000     0.608960000000     0.0363888  
H46      H      0.355550000000     0.993350000000     0.620100000000     0.0411274  
H47      H      0.253910000000     0.036990000000     0.656460000000     0.0362789  
H48      H      0.245880000000     0.101120000000     0.646340000000     0.0424734  
H49      H      0.338250000000     0.406510000000     0.804420000000     0.0527848  
H50      H      0.318120000000     0.269560000000     0.020070000000     0.0419842  
H51      H      0.378090000000     0.337220000000     0.736140000000     0.0426072  
H52      H      0.245610000000     0.308840000000     0.965550000000     0.0530428  
H53      H      0.367130000000     0.253270000000     0.911030000000     0.0384986  
H54      H      0.397580000000     0.285920000000     0.836050000000     0.0384947  
H55      H      0.408800000000     0.337900000000     0.795990000000     0.0530256  
H56      H      0.316000000000     0.240290000000     0.956810000000     0.0532454  
H57      H      0.287310000000     0.393520000000     0.850480000000     0.0384237  
H58      H      0.336560000000     0.377420000000     0.741260000000     0.0417999  
H59      H      0.256910000000     0.360900000000     0.925600000000     0.0385155  
H60      H      0.276410000000     0.309700000000     0.025110000000     0.0424178  
H61      H      0.275010000000     0.085970000000     0.024510000000     0.042108   
H62      H      0.409340000000     0.059060000000     0.800420000000     0.0532589  
H63      H      0.315160000000     0.155820000000     0.959850000000     0.0527239  
H64      H      0.337620000000     0.019890000000     0.741410000000     0.0417872  
H65      H      0.397740000000     0.110940000000     0.841450000000     0.0385064  
H66      H      0.366570000000     0.143120000000     0.915980000000     0.0384456  
H67      H      0.316430000000     0.126440000000     0.022330000000     0.0416151  
H68      H      0.378920000000     0.060440000000     0.739260000000     0.0423899  
H69      H      0.256300000000     0.035370000000     0.922030000000     0.0386425  
H70      H      0.244710000000     0.087010000000     0.963660000000     0.0528555  
H71      H      0.287420000000     0.003240000000     0.847300000000     0.0387512  
H72      H      0.338930000000     0.990440000000     0.803720000000     0.0516878  
H73      H      0.128990000000     0.311330000000     0.026490000000     0.0434429  
H74      H      0.995200000000     0.336810000000     0.798600000000     0.0527001  
H75      H      0.088870000000     0.241180000000     0.963490000000     0.0531286  
H76      H      0.067010000000     0.375830000000     0.739590000000     0.043334   
H77      H      0.006720000000     0.285230000000     0.841870000000     0.0385663  
H78      H      0.037560000000     0.253640000000     0.918360000000     0.0383324  
H79      H      0.087530000000     0.270970000000     0.025190000000     0.0433178  
H80      H      0.025860000000     0.335150000000     0.737850000000     0.0437495  
H81      H      0.147800000000     0.361380000000     0.922370000000     0.0382125  
H82      H      0.159360000000     0.309900000000     0.965610000000     0.0531163  
H83      H      0.116930000000     0.392980000000     0.845960000000     0.0381967  
H84      H      0.065430000000     0.405560000000     0.801420000000     0.0530996  
H85      H      0.403740000000     0.333040000000     0.530640000000     0.0531207  
H86      H      0.246460000000     0.294950000000     0.646240000000     0.0430506  
H87      H      0.356190000000     0.402350000000     0.618370000000     0.0430074  
H88      H      0.316030000000     0.245000000000     0.725160000000     0.0535862  
H89      H      0.254620000000     0.359460000000     0.658570000000     0.0363518  
H90      H      0.291020000000     0.395400000000     0.609850000000     0.0361318  
H91      H      0.337820000000     0.400800000000     0.537680000000     0.0534407  
H92      H      0.249190000000     0.312180000000     0.728770000000     0.0536917  
H93      H      0.399130000000     0.286050000000     0.603160000000     0.0361714  
H94      H      0.408170000000     0.349720000000     0.612430000000     0.0430104  
H95      H      0.362790000000     0.250170000000     0.652380000000     0.0361824  
H96      H      0.297740000000     0.243130000000     0.644380000000     0.043001   
H97      H      0.086380000000     0.149750000000     0.232040000000     0.0530298  
H98      H      0.048690000000     0.993330000000     0.118770000000     0.0418002  
H99      H      0.157030000000     0.101990000000     0.148310000000     0.0429683  
H100     H      0.999010000000     0.061990000000     0.036070000000     0.0522783  
H101     H      0.113900000000     0.001430000000     0.107230000000     0.0366164  
H102     H      0.149830000000     0.037700000000     0.156460000000     0.036236   
H103     H      0.154440000000     0.084190000000     0.229310000000     0.0535     
H104     H      0.066490000000     0.995590000000     0.036620000000     0.052097   
H105     H      0.039280000000     0.144660000000     0.159160000000     0.0363829  
H106     H      0.103660000000     0.153640000000     0.150580000000     0.0431501  
H107     H      0.003420000000     0.108450000000     0.109490000000     0.0363039  
H108     H      0.996140000000     0.044270000000     0.117150000000     0.0417457  
H109     H      0.024180000000     0.062070000000     0.241600000000     0.0421247  
H110     H      0.159980000000     0.086430000000     0.462780000000     0.0532823  
H111     H      0.064560000000     0.991500000000     0.301420000000     0.0518268  
H112     H      0.088810000000     0.125260000000     0.525880000000     0.0424242  
H113     H      0.148020000000     0.035040000000     0.419270000000     0.0386803  
H114     H      0.116310000000     0.003680000000     0.344120000000     0.0387014  
H115     H      0.065500000000     0.021490000000     0.240400000000     0.0422022  
H116     H      0.129910000000     0.084570000000     0.524770000000     0.0423589  
H117     H      0.006190000000     0.111610000000     0.347410000000     0.0386229  
H118     H      0.994250000000     0.060460000000     0.303330000000     0.0518978  
H119     H      0.037880000000     0.142930000000     0.422690000000     0.0386202  
H120     H      0.089770000000     0.155240000000     0.464840000000     0.0530564  
H121     H      0.995480000000     0.338180000000     0.056980000000     0.0493553  
H122     H      0.133060000000     0.318960000000     0.276320000000     0.0503043  
H123     H      0.073360000000     0.380420000000     0.989440000000     0.0502271  
H124     H      0.091580000000     0.242160000000     0.205760000000     0.0503786  
H125     H      0.147080000000     0.361600000000     0.171340000000     0.0363124  
H126     H      0.116680000000     0.392110000000     0.092740000000     0.0362341  
H127     H      0.062320000000     0.403970000000     0.058390000000     0.0504246  
H128     H      0.158160000000     0.308160000000     0.208530000000     0.0510637  
H129     H      0.006660000000     0.284570000000     0.093150000000     0.0364306  
H130     H      0.019730000000     0.327220000000     0.988870000000     0.050082   
H131     H      0.037100000000     0.254040000000     0.171670000000     0.0363883  
H132     H      0.080480000000     0.265660000000     0.274770000000     0.0500244  
H133     H      0.337680000000     0.994890000000     0.038810000000     0.0518623  
H134     H      0.297170000000     0.152030000000     0.140760000000     0.0426704  
H135     H      0.407380000000     0.044790000000     0.118190000000     0.0424888  
H136     H      0.248860000000     0.084000000000     0.228070000000     0.0534944  
H137     H      0.363010000000     0.145420000000     0.154230000000     0.0362532  
H138     H      0.399510000000     0.109140000000     0.107160000000     0.036026   
H139     H      0.404910000000     0.062090000000     0.036560000000     0.0532828  
H140     H      0.315410000000     0.151820000000     0.222590000000     0.0539269  
H141     H      0.290360000000     0.000760000000     0.108970000000     0.0363674  
H142     H      0.355550000000     0.993350000000     0.120100000000     0.0411185  
H143     H      0.253910000000     0.036990000000     0.156460000000     0.0362618  
H144     H      0.245880000000     0.101120000000     0.146340000000     0.0424488  
H145     H      0.338250000000     0.406510000000     0.304420000000     0.0527744  
H146     H      0.318120000000     0.269560000000     0.520070000000     0.0421554  
H147     H      0.378090000000     0.337220000000     0.236140000000     0.0426069  
H148     H      0.245610000000     0.308840000000     0.465560000000     0.0530548  
H149     H      0.367130000000     0.253270000000     0.411030000000     0.0384808  
H150     H      0.397580000000     0.285920000000     0.336050000000     0.0384761  
H151     H      0.408800000000     0.337900000000     0.295990000000     0.053016   
H152     H      0.316000000000     0.240290000000     0.456810000000     0.0532625  
H153     H      0.287310000000     0.393520000000     0.350480000000     0.038403   
H154     H      0.336560000000     0.377420000000     0.241260000000     0.0417998  
H155     H      0.256910000000     0.360900000000     0.425600000000     0.0384951  
H156     H      0.276410000000     0.309700000000     0.525110000000     0.0425865  
H157     H      0.275010000000     0.085970000000     0.524510000000     0.0422794  
H158     H      0.409340000000     0.059060000000     0.300420000000     0.0532374  
H159     H      0.315160000000     0.155820000000     0.459860000000     0.0527357  
H160     H      0.337620000000     0.019890000000     0.241410000000     0.0417856  
H161     H      0.397740000000     0.110940000000     0.341450000000     0.0384852  
H162     H      0.366570000000     0.143120000000     0.415980000000     0.0384278  
H163     H      0.316430000000     0.126440000000     0.522330000000     0.0417861  
H164     H      0.378920000000     0.060440000000     0.239250000000     0.0423694  
H165     H      0.256300000000     0.035370000000     0.422030000000     0.038623   
H166     H      0.244710000000     0.087010000000     0.463660000000     0.0528695  
H167     H      0.287420000000     0.003240000000     0.347300000000     0.0387258  
H168     H      0.338930000000     0.990440000000     0.303720000000     0.0516766  
H169     H      0.128990000000     0.311330000000     0.526490000000     0.0436038  
H170     H      0.995200000000     0.336810000000     0.298600000000     0.0526912  
H171     H      0.088870000000     0.241180000000     0.463490000000     0.053142   
H172     H      0.067010000000     0.375830000000     0.239590000000     0.0433333  
H173     H      0.006720000000     0.285230000000     0.341860000000     0.0385431  
H174     H      0.037560000000     0.253640000000     0.418360000000     0.0383146  
H175     H      0.087530000000     0.270970000000     0.525190000000     0.0434883  
H176     H      0.025860000000     0.335150000000     0.237850000000     0.0437489  
H177     H      0.147800000000     0.361380000000     0.422370000000     0.0381934  
H178     H      0.159360000000     0.309900000000     0.465610000000     0.0531239  
H179     H      0.116930000000     0.392980000000     0.345950000000     0.0381735  
H180     H      0.065430000000     0.405560000000     0.301420000000     0.0530904  
H181     H      0.403740000000     0.333040000000     0.030640000000     0.0530649  
H182     H      0.246460000000     0.294950000000     0.146240000000     0.0430243  
H183     H      0.356190000000     0.402350000000     0.118370000000     0.0429922  
H184     H      0.316030000000     0.245000000000     0.225160000000     0.0535818  
H185     H      0.254620000000     0.359460000000     0.158570000000     0.036332   
H186     H      0.291020000000     0.395400000000     0.109850000000     0.0361046  
H187     H      0.337820000000     0.400800000000     0.037690000000     0.0533868  
H188     H      0.249190000000     0.312180000000     0.228770000000     0.053687   
H189     H      0.399130000000     0.286050000000     0.103160000000     0.0361463  
H190     H      0.408170000000     0.349720000000     0.112430000000     0.0429978  
H191     H      0.362790000000     0.250170000000     0.152380000000     0.036163   
H192     H      0.297740000000     0.243130000000     0.144380000000     0.0429759  
H193     H      0.086380000000     0.649750000000     0.732040000000     0.0530667  
H194     H      0.048690000000     0.493330000000     0.618770000000     0.0432764  
H195     H      0.157030000000     0.601990000000     0.648310000000     0.0429718  
H196     H      0.999010000000     0.561990000000     0.536070000000     0.0523116  
H197     H      0.113900000000     0.501430000000     0.607230000000     0.0363982  
H198     H      0.149830000000     0.537700000000     0.656460000000     0.036079   
H199     H      0.154440000000     0.584190000000     0.729310000000     0.053464   
H200     H      0.066490000000     0.495590000000     0.536620000000     0.053612   
H201     H      0.039280000000     0.644660000000     0.659160000000     0.0364322  
H202     H      0.103660000000     0.653640000000     0.650580000000     0.0432072  
H203     H      0.003420000000     0.608450000000     0.609490000000     0.0363467  
H204     H      0.996140000000     0.544270000000     0.617150000000     0.0416382  
H205     H      0.024180000000     0.562070000000     0.741600000000     0.042126   
H206     H      0.159980000000     0.586430000000     0.962790000000     0.0532323  
H207     H      0.064560000000     0.491500000000     0.801410000000     0.0529608  
H208     H      0.088810000000     0.625260000000     0.025880000000     0.0422544  
H209     H      0.148020000000     0.535040000000     0.919280000000     0.0385354  
H210     H      0.116310000000     0.503680000000     0.844120000000     0.03845    
H211     H      0.065500000000     0.521490000000     0.740400000000     0.0423328  
H212     H      0.129910000000     0.584570000000     0.024770000000     0.0421603  
H213     H      0.006190000000     0.611610000000     0.847410000000     0.0386669  
H214     H      0.994250000000     0.560460000000     0.803330000000     0.0518886  
H215     H      0.037880000000     0.642930000000     0.922690000000     0.0386425  
H216     H      0.089770000000     0.655240000000     0.964850000000     0.0530434  
H217     H      0.995480000000     0.838180000000     0.556980000000     0.049334   
H218     H      0.133060000000     0.818960000000     0.776330000000     0.0502849  
H219     H      0.073360000000     0.880420000000     0.489440000000     0.0500281  
H220     H      0.091580000000     0.742160000000     0.705760000000     0.0503947  
H221     H      0.147080000000     0.861600000000     0.671340000000     0.0362698  
H222     H      0.116680000000     0.892110000000     0.592740000000     0.0361448  
H223     H      0.062320000000     0.903970000000     0.558390000000     0.0503523  
H224     H      0.158160000000     0.808160000000     0.708520000000     0.0510575  
H225     H      0.006660000000     0.784570000000     0.593150000000     0.0364654  
H226     H      0.019730000000     0.827220000000     0.488870000000     0.0499192  
H227     H      0.037100000000     0.754030000000     0.671670000000     0.0363919  
H228     H      0.080480000000     0.765660000000     0.774770000000     0.0500281  
H229     H      0.337680000000     0.494890000000     0.538810000000     0.0533894  
H230     H      0.297170000000     0.652030000000     0.640760000000     0.0426894  
H231     H      0.407380000000     0.544790000000     0.618180000000     0.0424439  
H232     H      0.248860000000     0.584000000000     0.728070000000     0.053464   
H233     H      0.363010000000     0.645420000000     0.654230000000     0.0362895  
H234     H      0.399510000000     0.609140000000     0.607150000000     0.0360723  
H235     H      0.404910000000     0.562090000000     0.536560000000     0.0533798  
H236     H      0.315410000000     0.651820000000     0.722590000000     0.0539224  
H237     H      0.290360000000     0.500760000000     0.608960000000     0.0361415  
H238     H      0.355550000000     0.493350000000     0.620100000000     0.0426116  
H239     H      0.253910000000     0.536990000000     0.656460000000     0.0361007  
H240     H      0.245880000000     0.601120000000     0.646340000000     0.0424617  
H241     H      0.338250000000     0.906510000000     0.804420000000     0.05271    
H242     H      0.318120000000     0.769560000000     0.020070000000     0.0419899  
H243     H      0.378090000000     0.837220000000     0.736140000000     0.0425918  
H244     H      0.245610000000     0.808840000000     0.965550000000     0.0530321  
H245     H      0.367130000000     0.753270000000     0.911030000000     0.0385113  
H246     H      0.397580000000     0.785910000000     0.836050000000     0.0384899  
H247     H      0.408800000000     0.837900000000     0.795990000000     0.0530132  
H248     H      0.316000000000     0.740290000000     0.956810000000     0.0532528  
H249     H      0.287310000000     0.893520000000     0.850480000000     0.0383088  
H250     H      0.336560000000     0.877420000000     0.741260000000     0.0417749  
H251     H      0.256910000000     0.860900000000     0.925600000000     0.038456   
H252     H      0.276410000000     0.809700000000     0.025110000000     0.0424141  
H253     H      0.275010000000     0.585970000000     0.024510000000     0.042083   
H254     H      0.409340000000     0.559060000000     0.800420000000     0.0532635  
H255     H      0.315160000000     0.655820000000     0.959850000000     0.0527203  
H256     H      0.337620000000     0.519890000000     0.741410000000     0.0419232  
H257     H      0.397740000000     0.610940000000     0.841450000000     0.0385324  
H258     H      0.366570000000     0.643130000000     0.915980000000     0.0384141  
H259     H      0.316430000000     0.626440000000     0.022330000000     0.0416118  
H260     H      0.378920000000     0.560440000000     0.739260000000     0.0423926  
H261     H      0.256300000000     0.535370000000     0.922030000000     0.0384821  
H262     H      0.244710000000     0.587010000000     0.963660000000     0.0528193  
H263     H      0.287420000000     0.503240000000     0.847300000000     0.0384764  
H264     H      0.338930000000     0.490450000000     0.803720000000     0.0528482  
H265     H      0.128990000000     0.811330000000     0.026490000000     0.0434392  
H266     H      0.995200000000     0.836810000000     0.798600000000     0.052681   
H267     H      0.088870000000     0.741180000000     0.963490000000     0.0531363  
H268     H      0.067010000000     0.875830000000     0.739590000000     0.043298   
H269     H      0.006720000000     0.785230000000     0.841870000000     0.0385789  
H270     H      0.037560000000     0.753640000000     0.918360000000     0.0383447  
H271     H      0.087530000000     0.770970000000     0.025190000000     0.0433233  
H272     H      0.025860000000     0.835150000000     0.737850000000     0.0437434  
H273     H      0.147800000000     0.861380000000     0.922370000000     0.0381531  
H274     H      0.159360000000     0.809900000000     0.965610000000     0.0531051  
H275     H      0.116930000000     0.892980000000     0.845960000000     0.0380822  
H276     H      0.065430000000     0.905560000000     0.801420000000     0.0530204  
H277     H      0.403740000000     0.833040000000     0.530640000000     0.0531281  
H278     H      0.246460000000     0.794950000000     0.646240000000     0.0430473  
H279     H      0.356190000000     0.902350000000     0.618370000000     0.0429398  
H280     H      0.316030000000     0.745000000000     0.725160000000     0.0535927  
H281     H      0.254620000000     0.859460000000     0.658570000000     0.0362931  
H282     H      0.291020000000     0.895400000000     0.609850000000     0.0360125  
H283     H      0.337820000000     0.900800000000     0.537680000000     0.0533792  
H284     H      0.249190000000     0.812180000000     0.728770000000     0.0536779  
H285     H      0.399130000000     0.786050000000     0.603160000000     0.0361794  
H286     H      0.408170000000     0.849720000000     0.612430000000     0.0430012  
H287     H      0.362790000000     0.750170000000     0.652380000000     0.0361913  
H288     H      0.297740000000     0.743130000000     0.644380000000     0.0430083  
H289     H      0.086380000000     0.649750000000     0.232040000000     0.053063   
H290     H      0.048690000000     0.493330000000     0.118770000000     0.0432621  
H291     H      0.157030000000     0.601990000000     0.148310000000     0.0429471  
H292     H      0.999010000000     0.561990000000     0.036070000000     0.0522578  
H293     H      0.113900000000     0.501430000000     0.107230000000     0.0363732  
H294     H      0.149830000000     0.537700000000     0.156460000000     0.0360627  
H295     H      0.154440000000     0.584190000000     0.229310000000     0.0534597  
H296     H      0.066490000000     0.495590000000     0.036620000000     0.0535568  
H297     H      0.039280000000     0.644660000000     0.159160000000     0.0364158  
H298     H      0.103660000000     0.653640000000     0.150580000000     0.043184   
H299     H      0.003420000000     0.608450000000     0.109490000000     0.0363237  
H300     H      0.996140000000     0.544270000000     0.117150000000     0.0416273  
H301     H      0.024180000000     0.562070000000     0.241600000000     0.0421245  
H302     H      0.159980000000     0.586430000000     0.462780000000     0.0532509  
H303     H      0.064560000000     0.491500000000     0.301420000000     0.0529512  
H304     H      0.088810000000     0.625260000000     0.525880000000     0.0424263  
H305     H      0.148020000000     0.535040000000     0.419270000000     0.0385146  
H306     H      0.116310000000     0.503680000000     0.344120000000     0.0384295  
H307     H      0.065500000000     0.521490000000     0.240400000000     0.0423324  
H308     H      0.129910000000     0.584570000000     0.524770000000     0.0423321  
H309     H      0.006190000000     0.611610000000     0.347410000000     0.0386458  
H310     H      0.994250000000     0.560460000000     0.303330000000     0.0518767  
H311     H      0.037880000000     0.642930000000     0.422690000000     0.0386223  
H312     H      0.089770000000     0.655240000000     0.464840000000     0.053061   
H313     H      0.995480000000     0.838180000000     0.056980000000     0.049334   
H314     H      0.133060000000     0.818960000000     0.276320000000     0.0502939  
H315     H      0.073360000000     0.880420000000     0.989440000000     0.0501943  
H316     H      0.091580000000     0.742160000000     0.205760000000     0.0503842  
H317     H      0.147080000000     0.861600000000     0.171340000000     0.0362509  
H318     H      0.116680000000     0.892110000000     0.092740000000     0.036121   
H319     H      0.062320000000     0.903970000000     0.058390000000     0.0503512  
H320     H      0.158160000000     0.808160000000     0.208530000000     0.0510536  
H321     H      0.006660000000     0.784570000000     0.093150000000     0.0364491  
H322     H      0.019730000000     0.827220000000     0.988870000000     0.0500864  
H323     H      0.037100000000     0.754030000000     0.171670000000     0.0363717  
H324     H      0.080480000000     0.765660000000     0.274770000000     0.0500278  
H325     H      0.337680000000     0.494890000000     0.038810000000     0.0533364  
H326     H      0.297170000000     0.652030000000     0.140760000000     0.0426646  
H327     H      0.407380000000     0.544790000000     0.118190000000     0.0424337  
H328     H      0.248860000000     0.584000000000     0.228070000000     0.0534599  
H329     H      0.363010000000     0.645420000000     0.154230000000     0.0362724  
H330     H      0.399510000000     0.609140000000     0.107160000000     0.0360516  
H331     H      0.404910000000     0.562090000000     0.036560000000     0.0533265  
H332     H      0.315410000000     0.651820000000     0.222590000000     0.0539187  
H333     H      0.290360000000     0.500760000000     0.108970000000     0.0361202  
H334     H      0.355550000000     0.493350000000     0.120100000000     0.0426022  
H335     H      0.253910000000     0.536990000000     0.156460000000     0.0360837  
H336     H      0.245880000000     0.601120000000     0.146340000000     0.0424372  
H337     H      0.338250000000     0.906510000000     0.304420000000     0.0526997  
H338     H      0.318120000000     0.769560000000     0.520070000000     0.0421609  
H339     H      0.378090000000     0.837220000000     0.236140000000     0.0425916  
H340     H      0.245610000000     0.808840000000     0.465560000000     0.053044   
H341     H      0.367130000000     0.753270000000     0.411030000000     0.0384935  
H342     H      0.397580000000     0.785910000000     0.336050000000     0.0384713  
H343     H      0.408800000000     0.837900000000     0.295990000000     0.0530036  
H344     H      0.316000000000     0.740290000000     0.456810000000     0.0532698  
H345     H      0.287310000000     0.893520000000     0.350480000000     0.0382882  
H346     H      0.336560000000     0.877420000000     0.241260000000     0.0417748  
H347     H      0.256910000000     0.860900000000     0.425600000000     0.0384357  
H348     H      0.276410000000     0.809700000000     0.525110000000     0.0425825  
H349     H      0.275010000000     0.585970000000     0.524510000000     0.0422545  
H350     H      0.409340000000     0.559060000000     0.300420000000     0.0532421  
H351     H      0.315160000000     0.655820000000     0.459860000000     0.0527322  
H352     H      0.337620000000     0.519890000000     0.241410000000     0.0419217  
H353     H      0.397740000000     0.610940000000     0.341450000000     0.0385113  
H354     H      0.366570000000     0.643130000000     0.415980000000     0.0383963  
H355     H      0.316430000000     0.626440000000     0.522330000000     0.0417829  
H356     H      0.378920000000     0.560440000000     0.239250000000     0.042372   
H357     H      0.256300000000     0.535370000000     0.422030000000     0.0384626  
H358     H      0.244710000000     0.587010000000     0.463660000000     0.0528333  
H359     H      0.287420000000     0.503240000000     0.347300000000     0.0384509  
H360     H      0.338930000000     0.490450000000     0.303720000000     0.0528367  
H361     H      0.128990000000     0.811330000000     0.526490000000     0.0435998  
H362     H      0.995200000000     0.836810000000     0.298600000000     0.0526721  
H363     H      0.088870000000     0.741180000000     0.463490000000     0.0531498  
H364     H      0.067010000000     0.875830000000     0.239590000000     0.0432974  
H365     H      0.006720000000     0.785230000000     0.341860000000     0.0385557  
H366     H      0.037560000000     0.753640000000     0.418360000000     0.0383269  
H367     H      0.087530000000     0.770970000000     0.525190000000     0.0434936  
H368     H      0.025860000000     0.835150000000     0.237850000000     0.0437428  
H369     H      0.147800000000     0.861380000000     0.422370000000     0.038134   
H370     H      0.159360000000     0.809900000000     0.465610000000     0.0531127  
H371     H      0.116930000000     0.892980000000     0.345950000000     0.0380591  
H372     H      0.065430000000     0.905560000000     0.301420000000     0.0530112  
H373     H      0.403740000000     0.833040000000     0.030640000000     0.0530725  
H374     H      0.246460000000     0.794950000000     0.146240000000     0.043021   
H375     H      0.356190000000     0.902350000000     0.118370000000     0.0429246  
H376     H      0.316030000000     0.745000000000     0.225160000000     0.0535883  
H377     H      0.254620000000     0.859460000000     0.158570000000     0.0362733  
H378     H      0.291020000000     0.895400000000     0.109850000000     0.0359853  
H379     H      0.337820000000     0.900800000000     0.037690000000     0.0533255  
H380     H      0.249190000000     0.812180000000     0.228770000000     0.0536731  
H381     H      0.399130000000     0.786050000000     0.103160000000     0.0361543  
H382     H      0.408170000000     0.849720000000     0.112430000000     0.0429886  
H383     H      0.362790000000     0.750170000000     0.152380000000     0.0361718  
H384     H      0.297740000000     0.743130000000     0.144380000000     0.0429832  
H385     H      0.586390000000     0.149750000000     0.732040000000     0.0530179  
H386     H      0.548690000000     0.993330000000     0.618770000000     0.0417269  
H387     H      0.657030000000     0.101990000000     0.648310000000     0.0429923  
H388     H      0.499010000000     0.061990000000     0.536070000000     0.0535406  
H389     H      0.613900000000     0.001430000000     0.607230000000     0.0366688  
H390     H      0.649830000000     0.037700000000     0.656460000000     0.0362463  
H391     H      0.654440000000     0.084190000000     0.729310000000     0.0535043  
H392     H      0.566490000000     0.995590000000     0.536620000000     0.0521512  
H393     H      0.539280000000     0.144660000000     0.659160000000     0.0362612  
H394     H      0.603660000000     0.153640000000     0.650580000000     0.0431588  
H395     H      0.503410000000     0.108450000000     0.609490000000     0.0360821  
H396     H      0.496140000000     0.044270000000     0.617150000000     0.0429604  
H397     H      0.524180000000     0.062070000000     0.741600000000     0.0422333  
H398     H      0.659980000000     0.086430000000     0.962790000000     0.0532667  
H399     H      0.564560000000     0.991500000000     0.801410000000     0.0518118  
H400     H      0.588810000000     0.125260000000     0.025880000000     0.0422291  
H401     H      0.648020000000     0.035040000000     0.919280000000     0.0387027  
H402     H      0.616310000000     0.003680000000     0.844120000000     0.0387414  
H403     H      0.565500000000     0.021490000000     0.740400000000     0.0422005  
H404     H      0.629910000000     0.084570000000     0.024770000000     0.0421879  
H405     H      0.506190000000     0.111610000000     0.847410000000     0.0384087  
H406     H      0.494250000000     0.060460000000     0.803330000000     0.0528437  
H407     H      0.537880000000     0.142930000000     0.922690000000     0.0385053  
H408     H      0.589770000000     0.155240000000     0.964850000000     0.0530105  
H409     H      0.495490000000     0.338180000000     0.556980000000     0.0503468  
H410     H      0.633060000000     0.318960000000     0.776330000000     0.0502939  
H411     H      0.573360000000     0.380420000000     0.489440000000     0.0500987  
H412     H      0.591580000000     0.242160000000     0.705760000000     0.0503307  
H413     H      0.647080000000     0.361600000000     0.671340000000     0.0363272  
H414     H      0.616680000000     0.392110000000     0.592740000000     0.0362725  
H415     H      0.562320000000     0.403970000000     0.558390000000     0.0504124  
H416     H      0.658160000000     0.308160000000     0.708520000000     0.0510684  
H417     H      0.506660000000     0.284570000000     0.593150000000     0.0362352  
H418     H      0.519730000000     0.327220000000     0.488870000000     0.0500113  
H419     H      0.537100000000     0.254040000000     0.671670000000     0.0362665  
H420     H      0.580480000000     0.265660000000     0.774770000000     0.049962   
H421     H      0.837680000000     0.994890000000     0.538810000000     0.0519037  
H422     H      0.797170000000     0.152030000000     0.640760000000     0.0426924  
H423     H      0.907380000000     0.044790000000     0.618180000000     0.0424399  
H424     H      0.748860000000     0.084000000000     0.728070000000     0.053505   
H425     H      0.863010000000     0.145420000000     0.654230000000     0.0362205  
H426     H      0.899510000000     0.109140000000     0.607150000000     0.0359426  
H427     H      0.904910000000     0.062090000000     0.536560000000     0.0532856  
H428     H      0.815410000000     0.151820000000     0.722590000000     0.0539187  
H429     H      0.790350000000     0.000760000000     0.608960000000     0.0363901  
H430     H      0.855550000000     0.993350000000     0.620100000000     0.041093   
H431     H      0.753910000000     0.036990000000     0.656460000000     0.0362917  
H432     H      0.745880000000     0.101120000000     0.646340000000     0.0424789  
H433     H      0.838250000000     0.406510000000     0.804420000000     0.0527861  
H434     H      0.818120000000     0.269560000000     0.020070000000     0.0419782  
H435     H      0.878090000000     0.337220000000     0.736140000000     0.0425805  
H436     H      0.745610000000     0.308840000000     0.965550000000     0.0530486  
H437     H      0.867130000000     0.253270000000     0.911030000000     0.0384415  
H438     H      0.897580000000     0.285920000000     0.836050000000     0.0383918  
H439     H      0.908800000000     0.337900000000     0.795990000000     0.0529541  
H440     H      0.816000000000     0.240290000000     0.956810000000     0.0532334  
H441     H      0.787310000000     0.393520000000     0.850480000000     0.0384312  
H442     H      0.836560000000     0.377420000000     0.741260000000     0.0417989  
H443     H      0.756910000000     0.360900000000     0.925600000000     0.0385237  
H444     H      0.776410000000     0.309700000000     0.025110000000     0.0424211  
H445     H      0.775010000000     0.085970000000     0.024510000000     0.0421205  
H446     H      0.909340000000     0.059060000000     0.800420000000     0.0531956  
H447     H      0.815160000000     0.155820000000     0.959850000000     0.0526996  
H448     H      0.837620000000     0.019890000000     0.741410000000     0.0417841  
H449     H      0.897740000000     0.110940000000     0.841450000000     0.0384084  
H450     H      0.866570000000     0.143120000000     0.915980000000     0.0383887  
H451     H      0.816430000000     0.126440000000     0.022330000000     0.0415971  
H452     H      0.878920000000     0.060440000000     0.739260000000     0.0423653  
H453     H      0.756300000000     0.035370000000     0.922030000000     0.0386548  
H454     H      0.744710000000     0.087010000000     0.963660000000     0.0528669  
H455     H      0.787420000000     0.003240000000     0.847300000000     0.0387626  
H456     H      0.838930000000     0.990440000000     0.803720000000     0.051671   
H457     H      0.628990000000     0.311330000000     0.026490000000     0.0434439  
H458     H      0.495200000000     0.336810000000     0.798600000000     0.0536725  
H459     H      0.588870000000     0.241180000000     0.963490000000     0.0530658  
H460     H      0.567010000000     0.375830000000     0.739590000000     0.0433294  
H461     H      0.506720000000     0.285230000000     0.841870000000     0.0383422  
H462     H      0.537560000000     0.253640000000     0.918360000000     0.0381936  
H463     H      0.587530000000     0.270970000000     0.025190000000     0.0432676  
H464     H      0.525860000000     0.335150000000     0.737850000000     0.0438782  
H465     H      0.647800000000     0.361380000000     0.922370000000     0.03821    
H466     H      0.659360000000     0.309900000000     0.965610000000     0.0531179  
H467     H      0.616930000000     0.392980000000     0.845960000000     0.0382116  
H468     H      0.565430000000     0.405560000000     0.801420000000     0.0531019  
H469     H      0.903740000000     0.333040000000     0.530640000000     0.0530574  
H470     H      0.746460000000     0.294950000000     0.646240000000     0.0430558  
H471     H      0.856190000000     0.402350000000     0.618370000000     0.0429937  
H472     H      0.816030000000     0.245000000000     0.725160000000     0.0535739  
H473     H      0.754620000000     0.359460000000     0.658570000000     0.0363595  
H474     H      0.791020000000     0.395400000000     0.609850000000     0.0361399  
H475     H      0.837820000000     0.400800000000     0.537680000000     0.0534443  
H476     H      0.749190000000     0.312180000000     0.728770000000     0.0536973  
H477     H      0.899130000000     0.286050000000     0.603160000000     0.0360605  
H478     H      0.908170000000     0.349720000000     0.612430000000     0.0429308  
H479     H      0.862790000000     0.250170000000     0.652380000000     0.0361326  
H480     H      0.797730000000     0.243130000000     0.644380000000     0.0430009  
H481     H      0.586390000000     0.149750000000     0.232040000000     0.0530141  
H482     H      0.548690000000     0.993330000000     0.118770000000     0.041713   
H483     H      0.657030000000     0.101990000000     0.148310000000     0.0429675  
H484     H      0.499010000000     0.061990000000     0.036070000000     0.0534868  
H485     H      0.613900000000     0.001430000000     0.107230000000     0.0366439  
H486     H      0.649830000000     0.037700000000     0.156460000000     0.0362299  
H487     H      0.654440000000     0.084190000000     0.229310000000     0.0535     
H488     H      0.566490000000     0.995590000000     0.036620000000     0.0520964  
H489     H      0.539280000000     0.144660000000     0.159160000000     0.0362448  
H490     H      0.603660000000     0.153640000000     0.150580000000     0.0431354  
H491     H      0.503410000000     0.108450000000     0.109490000000     0.0360589  
H492     H      0.496140000000     0.044270000000     0.117150000000     0.0429495  
H493     H      0.524180000000     0.062070000000     0.241600000000     0.0422317  
H494     H      0.659980000000     0.086430000000     0.462780000000     0.0532854  
H495     H      0.564560000000     0.991500000000     0.301420000000     0.0518025  
H496     H      0.588810000000     0.125260000000     0.525880000000     0.0424013  
H497     H      0.648020000000     0.035040000000     0.419270000000     0.038682   
H498     H      0.616310000000     0.003680000000     0.344120000000     0.0387209  
H499     H      0.565500000000     0.021490000000     0.240400000000     0.0422001  
H500     H      0.629910000000     0.084570000000     0.524770000000     0.0423599  
H501     H      0.506190000000     0.111610000000     0.347410000000     0.0383876  
H502     H      0.494250000000     0.060460000000     0.303330000000     0.0528319  
H503     H      0.537880000000     0.142930000000     0.422690000000     0.0384849  
H504     H      0.589770000000     0.155240000000     0.464840000000     0.0530281  
H505     H      0.495490000000     0.338180000000     0.056980000000     0.0503468  
H506     H      0.633060000000     0.318960000000     0.276320000000     0.0503028  
H507     H      0.573360000000     0.380420000000     0.989440000000     0.0502658  
H508     H      0.591580000000     0.242160000000     0.205760000000     0.0503202  
H509     H      0.647080000000     0.361600000000     0.171340000000     0.0363082  
H510     H      0.616680000000     0.392110000000     0.092740000000     0.0362486  
H511     H      0.562320000000     0.403970000000     0.058390000000     0.0504113  
H512     H      0.658160000000     0.308160000000     0.208530000000     0.0510645  
H513     H      0.506660000000     0.284570000000     0.093150000000     0.0362188  
H514     H      0.519730000000     0.327220000000     0.988870000000     0.0501795  
H515     H      0.537100000000     0.254040000000     0.171670000000     0.0362461  
H516     H      0.580480000000     0.265660000000     0.274770000000     0.0499617  
H517     H      0.837680000000     0.994890000000     0.038810000000     0.0518513  
H518     H      0.797170000000     0.152030000000     0.140760000000     0.0426676  
H519     H      0.907380000000     0.044790000000     0.118190000000     0.0424297  
H520     H      0.748860000000     0.084000000000     0.228070000000     0.0535009  
H521     H      0.863010000000     0.145420000000     0.154230000000     0.0362035  
H522     H      0.899510000000     0.109140000000     0.107160000000     0.035922   
H523     H      0.904910000000     0.062090000000     0.036560000000     0.0532324  
H524     H      0.815410000000     0.151820000000     0.222590000000     0.053915   
H525     H      0.790350000000     0.000760000000     0.108970000000     0.0363687  
H526     H      0.855550000000     0.993350000000     0.120100000000     0.0410841  
H527     H      0.753910000000     0.036990000000     0.156460000000     0.0362746  
H528     H      0.745880000000     0.101120000000     0.146340000000     0.0424543  
H529     H      0.838250000000     0.406510000000     0.304420000000     0.0527758  
H530     H      0.818120000000     0.269560000000     0.520070000000     0.0421494  
H531     H      0.878090000000     0.337220000000     0.236140000000     0.0425802  
H532     H      0.745610000000     0.308840000000     0.465560000000     0.0530605  
H533     H      0.867130000000     0.253270000000     0.411030000000     0.0384237  
H534     H      0.897580000000     0.285920000000     0.336050000000     0.0383732  
H535     H      0.908800000000     0.337900000000     0.295990000000     0.0529445  
H536     H      0.816000000000     0.240290000000     0.456810000000     0.0532505  
H537     H      0.787310000000     0.393520000000     0.350480000000     0.0384104  
H538     H      0.836560000000     0.377420000000     0.241260000000     0.0417988  
H539     H      0.756910000000     0.360900000000     0.425600000000     0.0385033  
H540     H      0.776410000000     0.309700000000     0.525110000000     0.0425899  
H541     H      0.775010000000     0.085970000000     0.524510000000     0.0422919  
H542     H      0.909340000000     0.059060000000     0.300420000000     0.0531742  
H543     H      0.815160000000     0.155820000000     0.459860000000     0.0527114  
H544     H      0.837620000000     0.019890000000     0.241410000000     0.0417826  
H545     H      0.897740000000     0.110940000000     0.341450000000     0.0383873  
H546     H      0.866570000000     0.143120000000     0.415980000000     0.0383709  
H547     H      0.816430000000     0.126440000000     0.522330000000     0.0417681  
H548     H      0.878920000000     0.060440000000     0.239250000000     0.0423447  
H549     H      0.756300000000     0.035370000000     0.422030000000     0.0386353  
H550     H      0.744710000000     0.087010000000     0.463660000000     0.0528809  
H551     H      0.787420000000     0.003240000000     0.347300000000     0.0387371  
H552     H      0.838930000000     0.990440000000     0.303720000000     0.0516597  
H553     H      0.628990000000     0.311330000000     0.526490000000     0.0436052  
H554     H      0.495200000000     0.336810000000     0.298600000000     0.0536636  
H555     H      0.588870000000     0.241180000000     0.463490000000     0.0530793  
H556     H      0.567010000000     0.375830000000     0.239590000000     0.0433287  
H557     H      0.506720000000     0.285230000000     0.341860000000     0.0383189  
H558     H      0.537560000000     0.253640000000     0.418360000000     0.0381757  
H559     H      0.587530000000     0.270970000000     0.525190000000     0.0434385  
H560     H      0.525860000000     0.335150000000     0.237850000000     0.0438776  
H561     H      0.647800000000     0.361380000000     0.422370000000     0.0381908  
H562     H      0.659360000000     0.309900000000     0.465610000000     0.0531255  
H563     H      0.616930000000     0.392980000000     0.345950000000     0.0381884  
H564     H      0.565430000000     0.405560000000     0.301420000000     0.0530927  
H565     H      0.903740000000     0.333040000000     0.030640000000     0.0530018  
H566     H      0.746460000000     0.294950000000     0.146240000000     0.0430294  
H567     H      0.856190000000     0.402350000000     0.118370000000     0.0429785  
H568     H      0.816030000000     0.245000000000     0.225160000000     0.0535695  
H569     H      0.754620000000     0.359460000000     0.158570000000     0.0363397  
H570     H      0.791020000000     0.395400000000     0.109850000000     0.0361126  
H571     H      0.837820000000     0.400800000000     0.037690000000     0.0533904  
H572     H      0.749190000000     0.312180000000     0.228770000000     0.0536926  
H573     H      0.899130000000     0.286050000000     0.103160000000     0.0360355  
H574     H      0.908170000000     0.349720000000     0.112430000000     0.0429182  
H575     H      0.862790000000     0.250170000000     0.152380000000     0.0361131  
H576     H      0.797730000000     0.243130000000     0.144380000000     0.0429759  
H577     H      0.586390000000     0.649750000000     0.732040000000     0.0530501  
H578     H      0.548690000000     0.493330000000     0.618770000000     0.0432253  
H579     H      0.657030000000     0.601990000000     0.648310000000     0.0429704  
H580     H      0.499010000000     0.561990000000     0.536070000000     0.053554   
H581     H      0.613900000000     0.501430000000     0.607230000000     0.0364218  
H582     H      0.649830000000     0.537700000000     0.656460000000     0.036069   
H583     H      0.654440000000     0.584190000000     0.729310000000     0.0534631  
H584     H      0.566490000000     0.495590000000     0.536620000000     0.0536469  
H585     H      0.539280000000     0.644660000000     0.659160000000     0.0362901  
H586     H      0.603660000000     0.653640000000     0.650580000000     0.043192   
H587     H      0.503410000000     0.608450000000     0.609490000000     0.0360978  
H588     H      0.496140000000     0.544270000000     0.617150000000     0.0428769  
H589     H      0.524180000000     0.562070000000     0.741600000000     0.0422366  
H590     H      0.659980000000     0.586430000000     0.962790000000     0.0532346  
H591     H      0.564560000000     0.491500000000     0.801410000000     0.0529632  
H592     H      0.588810000000     0.625260000000     0.025880000000     0.0422305  
H593     H      0.648020000000     0.535040000000     0.919280000000     0.0385339  
H594     H      0.616310000000     0.503680000000     0.844120000000     0.0384645  
H595     H      0.565500000000     0.521490000000     0.740400000000     0.0423343  
H596     H      0.629910000000     0.584570000000     0.024770000000     0.0421603  
H597     H      0.506190000000     0.611610000000     0.847410000000     0.0384266  
H598     H      0.494250000000     0.560460000000     0.803330000000     0.0528487  
H599     H      0.537880000000     0.642930000000     0.922690000000     0.0385042  
H600     H      0.589770000000     0.655240000000     0.964850000000     0.0530144  
H601     H      0.495490000000     0.838180000000     0.556980000000     0.0503445  
H602     H      0.633060000000     0.818960000000     0.776330000000     0.0502833  
H603     H      0.573360000000     0.880420000000     0.489440000000     0.0500665  
H604     H      0.591580000000     0.742160000000     0.705760000000     0.0503359  
H605     H      0.647080000000     0.861600000000     0.671340000000     0.0362644  
H606     H      0.616680000000     0.892110000000     0.592740000000     0.0361575  
H607     H      0.562320000000     0.903970000000     0.558390000000     0.0503375  
H608     H      0.658160000000     0.808160000000     0.708520000000     0.0510581  
H609     H      0.506660000000     0.784570000000     0.593150000000     0.0362496  
H610     H      0.519730000000     0.827220000000     0.488870000000     0.0500177  
H611     H      0.537100000000     0.754030000000     0.671670000000     0.0362474  
H612     H      0.580480000000     0.765660000000     0.774770000000     0.049965   
H613     H      0.837680000000     0.494890000000     0.538810000000     0.0534026  
H614     H      0.797170000000     0.652030000000     0.640760000000     0.0426865  
H615     H      0.907380000000     0.544790000000     0.618180000000     0.0423829  
H616     H      0.748860000000     0.584000000000     0.728070000000     0.0534698  
H617     H      0.863010000000     0.645420000000     0.654230000000     0.0362384  
H618     H      0.899510000000     0.609140000000     0.607150000000     0.0359665  
H619     H      0.904910000000     0.562090000000     0.536560000000     0.0533291  
H620     H      0.815410000000     0.651820000000     0.722590000000     0.0539102  
H621     H      0.790350000000     0.500760000000     0.608960000000     0.036139   
H622     H      0.855550000000     0.493350000000     0.620100000000     0.0426016  
H623     H      0.753910000000     0.536990000000     0.656460000000     0.0361106  
H624     H      0.745880000000     0.601120000000     0.646340000000     0.0424669  
H625     H      0.838250000000     0.906510000000     0.804420000000     0.05271    
H626     H      0.818120000000     0.769560000000     0.020070000000     0.0419838  
H627     H      0.878090000000     0.837220000000     0.736140000000     0.0425646  
H628     H      0.745610000000     0.808840000000     0.965550000000     0.0530378  
H629     H      0.867130000000     0.753270000000     0.911030000000     0.0384531  
H630     H      0.897580000000     0.785910000000     0.836050000000     0.038385   
H631     H      0.908800000000     0.837900000000     0.795990000000     0.0529403  
H632     H      0.816000000000     0.740290000000     0.956810000000     0.0532406  
H633     H      0.787310000000     0.893520000000     0.850480000000     0.0383144  
H634     H      0.836560000000     0.877420000000     0.741260000000     0.0417733  
H635     H      0.756910000000     0.860900000000     0.925600000000     0.0384632  
H636     H      0.776410000000     0.809700000000     0.025110000000     0.0424174  
H637     H      0.775010000000     0.585970000000     0.024510000000     0.0420951  
H638     H      0.909340000000     0.559060000000     0.800420000000     0.053199   
H639     H      0.815160000000     0.655820000000     0.959850000000     0.0526958  
H640     H      0.837620000000     0.519890000000     0.741410000000     0.0419222  
H641     H      0.897740000000     0.610940000000     0.841450000000     0.0384325  
H642     H      0.866570000000     0.643130000000     0.915980000000     0.0383559  
H643     H      0.816430000000     0.626440000000     0.022330000000     0.0415936  
H644     H      0.878920000000     0.560440000000     0.739260000000     0.0423675  
H645     H      0.756300000000     0.535370000000     0.922030000000     0.038492   
H646     H      0.744710000000     0.587010000000     0.963660000000     0.0528303  
H647     H      0.787420000000     0.503240000000     0.847300000000     0.0384833  
H648     H      0.838930000000     0.490450000000     0.803720000000     0.05285    
H649     H      0.628990000000     0.811330000000     0.026490000000     0.0434401  
H650     H      0.495200000000     0.836810000000     0.798600000000     0.0536724  
H651     H      0.588870000000     0.741180000000     0.963490000000     0.0530731  
H652     H      0.567010000000     0.875830000000     0.739590000000     0.0432927  
H653     H      0.506720000000     0.785230000000     0.841870000000     0.0383506  
H654     H      0.537560000000     0.753640000000     0.918360000000     0.0382035  
H655     H      0.587530000000     0.770970000000     0.025190000000     0.0432729  
H656     H      0.525860000000     0.835150000000     0.737850000000     0.0438746  
H657     H      0.647800000000     0.861380000000     0.922370000000     0.0381493  
H658     H      0.659360000000     0.809900000000     0.965610000000     0.0531065  
H659     H      0.616930000000     0.892980000000     0.845960000000     0.0380952  
H660     H      0.565430000000     0.905560000000     0.801420000000     0.0530215  
H661     H      0.903740000000     0.833040000000     0.530640000000     0.0530637  
H662     H      0.746460000000     0.794950000000     0.646240000000     0.0430525  
H663     H      0.856190000000     0.902350000000     0.618370000000     0.0429248  
H664     H      0.816030000000     0.745000000000     0.725160000000     0.0535803  
H665     H      0.754620000000     0.859460000000     0.658570000000     0.0362999  
H666     H      0.791020000000     0.895400000000     0.609850000000     0.0360185  
H667     H      0.837820000000     0.900800000000     0.537680000000     0.0533819  
H668     H      0.749190000000     0.812180000000     0.728770000000     0.0536833  
H669     H      0.899130000000     0.786050000000     0.603160000000     0.0360664  
H670     H      0.908170000000     0.849720000000     0.612430000000     0.0429199  
H671     H      0.862790000000     0.750170000000     0.652380000000     0.0361405  
H672     H      0.797730000000     0.743130000000     0.644380000000     0.0430082  
H673     H      0.586390000000     0.649750000000     0.232040000000     0.0530463  
H674     H      0.548690000000     0.493330000000     0.118770000000     0.043211   
H675     H      0.657030000000     0.601990000000     0.148310000000     0.0429457  
H676     H      0.499010000000     0.561990000000     0.036070000000     0.0535002  
H677     H      0.613900000000     0.501430000000     0.107230000000     0.0363968  
H678     H      0.649830000000     0.537700000000     0.156460000000     0.0360526  
H679     H      0.654440000000     0.584190000000     0.229310000000     0.0534587  
H680     H      0.566490000000     0.495590000000     0.036620000000     0.0535915  
H681     H      0.539280000000     0.644660000000     0.159160000000     0.0362736  
H682     H      0.603660000000     0.653640000000     0.150580000000     0.0431687  
H683     H      0.503410000000     0.608450000000     0.109490000000     0.0360746  
H684     H      0.496140000000     0.544270000000     0.117150000000     0.042866   
H685     H      0.524180000000     0.562070000000     0.241600000000     0.0422351  
H686     H      0.659980000000     0.586430000000     0.462780000000     0.0532533  
H687     H      0.564560000000     0.491500000000     0.301420000000     0.0529536  
H688     H      0.588810000000     0.625260000000     0.525880000000     0.0424028  
H689     H      0.648020000000     0.535040000000     0.419270000000     0.0385131  
H690     H      0.616310000000     0.503680000000     0.344120000000     0.038444   
H691     H      0.565500000000     0.521490000000     0.240400000000     0.0423339  
H692     H      0.629910000000     0.584570000000     0.524770000000     0.0423324  
H693     H      0.506190000000     0.611610000000     0.347410000000     0.0384054  
H694     H      0.494250000000     0.560460000000     0.303330000000     0.052837   
H695     H      0.537880000000     0.642930000000     0.422690000000     0.0384838  
H696     H      0.589770000000     0.655240000000     0.464840000000     0.0530321  
H697     H      0.495490000000     0.838180000000     0.056980000000     0.0503445  
H698     H      0.633060000000     0.818960000000     0.276320000000     0.0502922  
H699     H      0.573360000000     0.880420000000     0.989440000000     0.0502332  
H700     H      0.591580000000     0.742160000000     0.205760000000     0.0503253  
H701     H      0.647080000000     0.861600000000     0.171340000000     0.0362454  
H702     H      0.616680000000     0.892110000000     0.092740000000     0.0361336  
H703     H      0.562320000000     0.903970000000     0.058390000000     0.0503364  
H704     H      0.658160000000     0.808160000000     0.208530000000     0.0510542  
H705     H      0.506660000000     0.784570000000     0.093150000000     0.0362332  
H706     H      0.519730000000     0.827220000000     0.988870000000     0.0501856  
H707     H      0.537100000000     0.754030000000     0.171670000000     0.0362271  
H708     H      0.580480000000     0.765660000000     0.274770000000     0.0499647  
H709     H      0.837680000000     0.494890000000     0.038810000000     0.0533496  
H710     H      0.797170000000     0.652030000000     0.140760000000     0.0426617  
H711     H      0.907380000000     0.544790000000     0.118190000000     0.0423727  
H712     H      0.748860000000     0.584000000000     0.228070000000     0.0534658  
H713     H      0.863010000000     0.645420000000     0.154230000000     0.0362213  
H714     H      0.899510000000     0.609140000000     0.107160000000     0.0359458  
H715     H      0.904910000000     0.562090000000     0.036560000000     0.0532759  
H716     H      0.815410000000     0.651820000000     0.222590000000     0.0539065  
H717     H      0.790350000000     0.500760000000     0.108970000000     0.0361176  
H718     H      0.855550000000     0.493350000000     0.120100000000     0.0425923  
H719     H      0.753910000000     0.536990000000     0.156460000000     0.0360936  
H720     H      0.745880000000     0.601120000000     0.146340000000     0.0424424  
H721     H      0.838250000000     0.906510000000     0.304420000000     0.0526997  
H722     H      0.818120000000     0.769560000000     0.520070000000     0.0421548  
H723     H      0.878090000000     0.837220000000     0.236140000000     0.0425644  
H724     H      0.745610000000     0.808840000000     0.465560000000     0.0530497  
H725     H      0.867130000000     0.753270000000     0.411030000000     0.0384353  
H726     H      0.897580000000     0.785910000000     0.336050000000     0.0383665  
H727     H      0.908800000000     0.837900000000     0.295990000000     0.0529307  
H728     H      0.816000000000     0.740290000000     0.456810000000     0.0532577  
H729     H      0.787310000000     0.893520000000     0.350480000000     0.0382937  
H730     H      0.836560000000     0.877420000000     0.241260000000     0.0417733  
H731     H      0.756910000000     0.860900000000     0.425600000000     0.0384429  
H732     H      0.776410000000     0.809700000000     0.525110000000     0.0425859  
H733     H      0.775010000000     0.585970000000     0.524510000000     0.0422667  
H734     H      0.909340000000     0.559060000000     0.300420000000     0.0531776  
H735     H      0.815160000000     0.655820000000     0.459860000000     0.0527077  
H736     H      0.837620000000     0.519890000000     0.241410000000     0.0419207  
H737     H      0.897740000000     0.610940000000     0.341450000000     0.0384113  
H738     H      0.866570000000     0.643130000000     0.415980000000     0.0383381  
H739     H      0.816430000000     0.626440000000     0.522330000000     0.0417647  
H740     H      0.878920000000     0.560440000000     0.239250000000     0.0423469  
H741     H      0.756300000000     0.535370000000     0.422030000000     0.0384724  
H742     H      0.744710000000     0.587010000000     0.463660000000     0.0528443  
H743     H      0.787420000000     0.503240000000     0.347300000000     0.0384578  
H744     H      0.838930000000     0.490450000000     0.303720000000     0.0528385  
H745     H      0.628990000000     0.811330000000     0.526490000000     0.0436011  
H746     H      0.495200000000     0.836810000000     0.298600000000     0.0536636  
H747     H      0.588870000000     0.741180000000     0.463490000000     0.0530865  
H748     H      0.567010000000     0.875830000000     0.239590000000     0.043292   
H749     H      0.506720000000     0.785230000000     0.341860000000     0.0383273  
H750     H      0.537560000000     0.753640000000     0.418360000000     0.0381856  
H751     H      0.587530000000     0.770970000000     0.525190000000     0.0434435  
H752     H      0.525860000000     0.835150000000     0.237850000000     0.043874   
H753     H      0.647800000000     0.861380000000     0.422370000000     0.0381303  
H754     H      0.659360000000     0.809900000000     0.465610000000     0.0531141  
H755     H      0.616930000000     0.892980000000     0.345950000000     0.0380721  
H756     H      0.565430000000     0.905560000000     0.301420000000     0.0530123  
H757     H      0.903740000000     0.833040000000     0.030640000000     0.0530081  
H758     H      0.746460000000     0.794950000000     0.146240000000     0.0430262  
H759     H      0.856190000000     0.902350000000     0.118370000000     0.0429096  
H760     H      0.816030000000     0.745000000000     0.225160000000     0.0535759  
H761     H      0.754620000000     0.859460000000     0.158570000000     0.0362801  
H762     H      0.791020000000     0.895400000000     0.109850000000     0.0359914  
H763     H      0.837820000000     0.900800000000     0.037690000000     0.0533282  
H764     H      0.749190000000     0.812180000000     0.228770000000     0.0536786  
H765     H      0.899130000000     0.786050000000     0.103160000000     0.0360413  
H766     H      0.908170000000     0.849720000000     0.112430000000     0.0429073  
H767     H      0.862790000000     0.750170000000     0.152380000000     0.036121   
H768     H      0.797730000000     0.743130000000     0.144380000000     0.0429832  
N1       N      0.025670000000     0.021600000000     0.548680000000    -0.16121    
N2       N      0.127710000000     0.124550000000     0.717370000000    -0.160601   
N3       N      0.127380000000     0.123240000000     0.961280000000    -0.160827   
N4       N      0.026930000000     0.023480000000     0.804950000000    -0.161422   
N5       N      0.124380000000     0.275540000000     0.735370000000    -0.160941   
N6       N      0.029440000000     0.370670000000     0.528870000000    -0.161248   
N7       N      0.275210000000     0.124510000000     0.713990000000    -0.160409   
N8       N      0.378340000000     0.021650000000     0.549540000000    -0.161027   
N9       N      0.278390000000     0.272060000000     0.958840000000    -0.160877   
N10      N      0.376020000000     0.374670000000     0.802970000000    -0.160971   
N11      N      0.376650000000     0.022370000000     0.804540000000    -0.161188   
N12      N      0.277450000000     0.123880000000     0.959100000000    -0.161077   
N13      N      0.027710000000     0.373660000000     0.802240000000    -0.15945    
N14      N      0.126680000000     0.272970000000     0.962070000000    -0.159386   
N15      N      0.275360000000     0.271780000000     0.714940000000    -0.160476   
N16      N      0.378440000000     0.373930000000     0.547170000000    -0.160561   
N17      N      0.025670000000     0.021600000000     0.048680000000    -0.161164   
N18      N      0.127710000000     0.124550000000     0.217370000000    -0.160607   
N19      N      0.127380000000     0.123240000000     0.461280000000    -0.160794   
N20      N      0.026930000000     0.023480000000     0.304950000000    -0.161442   
N21      N      0.124380000000     0.275540000000     0.235370000000    -0.160943   
N22      N      0.029440000000     0.370670000000     0.028870000000    -0.161308   
N23      N      0.275210000000     0.124510000000     0.213990000000    -0.160415   
N24      N      0.378340000000     0.021650000000     0.049540000000    -0.160985   
N25      N      0.278390000000     0.272060000000     0.458840000000    -0.160843   
N26      N      0.376020000000     0.374670000000     0.302970000000    -0.160976   
N27      N      0.376650000000     0.022370000000     0.304540000000    -0.161201   
N28      N      0.277450000000     0.123880000000     0.459110000000    -0.161038   
N29      N      0.027710000000     0.373660000000     0.302230000000    -0.15944    
N30      N      0.126680000000     0.272970000000     0.462070000000    -0.159368   
N31      N      0.275360000000     0.271780000000     0.214940000000    -0.16048    
N32      N      0.378440000000     0.373930000000     0.047170000000    -0.160516   
N33      N      0.025670000000     0.521600000000     0.548680000000    -0.160803   
N34      N      0.127710000000     0.624550000000     0.717370000000    -0.160596   
N35      N      0.127380000000     0.623240000000     0.961280000000    -0.160831   
N36      N      0.026930000000     0.523480000000     0.804950000000    -0.161164   
N37      N      0.124380000000     0.775540000000     0.735370000000    -0.16094    
N38      N      0.029440000000     0.870670000000     0.528870000000    -0.16126    
N39      N      0.275210000000     0.624520000000     0.713990000000    -0.160468   
N40      N      0.378340000000     0.521650000000     0.549540000000    -0.160583   
N41      N      0.278390000000     0.772060000000     0.958840000000    -0.160875   
N42      N      0.376020000000     0.874660000000     0.802970000000    -0.160935   
N43      N      0.376650000000     0.522370000000     0.804540000000    -0.160909   
N44      N      0.277450000000     0.623880000000     0.959100000000    -0.161124   
N45      N      0.027710000000     0.873660000000     0.802240000000    -0.159466   
N46      N      0.126680000000     0.772970000000     0.962070000000    -0.159384   
N47      N      0.275360000000     0.771780000000     0.714940000000    -0.160474   
N48      N      0.378440000000     0.873930000000     0.547170000000    -0.160535   
N49      N      0.025670000000     0.521600000000     0.048680000000    -0.160758   
N50      N      0.127710000000     0.624550000000     0.217370000000    -0.160603   
N51      N      0.127380000000     0.623240000000     0.461280000000    -0.160798   
N52      N      0.026930000000     0.523480000000     0.304950000000    -0.161183   
N53      N      0.124380000000     0.775540000000     0.235370000000    -0.160943   
N54      N      0.029440000000     0.870670000000     0.028870000000    -0.161321   
N55      N      0.275210000000     0.624520000000     0.213990000000    -0.160474   
N56      N      0.378340000000     0.521650000000     0.049540000000    -0.160541   
N57      N      0.278390000000     0.772060000000     0.458840000000    -0.160841   
N58      N      0.376020000000     0.874660000000     0.302970000000    -0.160941   
N59      N      0.376650000000     0.522370000000     0.304540000000    -0.160922   
N60      N      0.277450000000     0.623880000000     0.459110000000    -0.161085   
N61      N      0.027710000000     0.873660000000     0.302230000000    -0.159456   
N62      N      0.126680000000     0.772970000000     0.462070000000    -0.159366   
N63      N      0.275360000000     0.771780000000     0.214940000000    -0.160478   
N64      N      0.378440000000     0.873930000000     0.047170000000    -0.16049    
N65      N      0.525670000000     0.021600000000     0.548680000000    -0.160862   
N66      N      0.627710000000     0.124550000000     0.717370000000    -0.160608   
N67      N      0.627380000000     0.123240000000     0.961280000000    -0.160831   
N68      N      0.526930000000     0.023480000000     0.804950000000    -0.161209   
N69      N      0.624380000000     0.275540000000     0.735370000000    -0.160963   
N70      N      0.529440000000     0.370670000000     0.528870000000    -0.161003   
N71      N      0.775210000000     0.124510000000     0.713990000000    -0.160407   
N72      N      0.878340000000     0.021650000000     0.549540000000    -0.161016   
N73      N      0.778390000000     0.272060000000     0.958840000000    -0.160876   
N74      N      0.876020000000     0.374670000000     0.802970000000    -0.160979   
N75      N      0.876650000000     0.022370000000     0.804540000000    -0.161199   
N76      N      0.777460000000     0.123880000000     0.959100000000    -0.161029   
N77      N      0.527710000000     0.373660000000     0.802240000000    -0.15922    
N78      N      0.626680000000     0.272970000000     0.962070000000    -0.159406   
N79      N      0.775360000000     0.271780000000     0.714940000000    -0.160476   
N80      N      0.878440000000     0.373930000000     0.547170000000    -0.160572   
N81      N      0.525670000000     0.021600000000     0.048680000000    -0.160817   
N82      N      0.627710000000     0.124550000000     0.217370000000    -0.160614   
N83      N      0.627380000000     0.123240000000     0.461280000000    -0.160798   
N84      N      0.526930000000     0.023480000000     0.304950000000    -0.161229   
N85      N      0.624380000000     0.275540000000     0.235370000000    -0.160965   
N86      N      0.529440000000     0.370670000000     0.028870000000    -0.161064   
N87      N      0.775210000000     0.124510000000     0.213990000000    -0.160413   
N88      N      0.878340000000     0.021650000000     0.049540000000    -0.160973   
N89      N      0.778390000000     0.272060000000     0.458840000000    -0.160842   
N90      N      0.876020000000     0.374670000000     0.302970000000    -0.160985   
N91      N      0.876650000000     0.022370000000     0.304540000000    -0.161212   
N92      N      0.777460000000     0.123880000000     0.459110000000    -0.16099    
N93      N      0.527710000000     0.373660000000     0.302230000000    -0.159209   
N94      N      0.626680000000     0.272970000000     0.462070000000    -0.159388   
N95      N      0.775360000000     0.271780000000     0.214940000000    -0.16048    
N96      N      0.878440000000     0.373930000000     0.047170000000    -0.160527   
N97      N      0.525670000000     0.521600000000     0.548680000000    -0.160431   
N98      N      0.627710000000     0.624550000000     0.717370000000    -0.160604   
N99      N      0.627380000000     0.623240000000     0.961280000000    -0.160836   
N100     N      0.526930000000     0.523480000000     0.804950000000    -0.160935   
N101     N      0.624380000000     0.775540000000     0.735370000000    -0.160962   
N102     N      0.529440000000     0.870670000000     0.528870000000    -0.161011   
N103     N      0.775210000000     0.624520000000     0.713990000000    -0.160466   
N104     N      0.878340000000     0.521650000000     0.549540000000    -0.160565   
N105     N      0.778390000000     0.772060000000     0.958840000000    -0.160873   
N106     N      0.876020000000     0.874660000000     0.802970000000    -0.160944   
N107     N      0.876650000000     0.522370000000     0.804540000000    -0.160916   
N108     N      0.777460000000     0.623880000000     0.959100000000    -0.161076   
N109     N      0.527710000000     0.873660000000     0.802240000000    -0.159231   
N110     N      0.626680000000     0.772970000000     0.962070000000    -0.159404   
N111     N      0.775360000000     0.771780000000     0.714940000000    -0.160474   
N112     N      0.878440000000     0.873930000000     0.547170000000    -0.160546   
N113     N      0.525670000000     0.521600000000     0.048680000000    -0.160386   
N114     N      0.627710000000     0.624550000000     0.217370000000    -0.16061    
N115     N      0.627380000000     0.623240000000     0.461280000000    -0.160802   
N116     N      0.526930000000     0.523480000000     0.304950000000    -0.160954   
N117     N      0.624380000000     0.775540000000     0.235370000000    -0.160965   
N118     N      0.529440000000     0.870670000000     0.028870000000    -0.161072   
N119     N      0.775210000000     0.624520000000     0.213990000000    -0.160472   
N120     N      0.878340000000     0.521650000000     0.049540000000    -0.160522   
N121     N      0.778390000000     0.772060000000     0.458840000000    -0.16084    
N122     N      0.876020000000     0.874660000000     0.302970000000    -0.16095    
N123     N      0.876650000000     0.522370000000     0.304540000000    -0.160929   
N124     N      0.777460000000     0.623880000000     0.459110000000    -0.161037   
N125     N      0.527710000000     0.873660000000     0.302230000000    -0.15922    
N126     N      0.626680000000     0.772970000000     0.462070000000    -0.159386   
N127     N      0.775360000000     0.771780000000     0.214940000000    -0.160478   
N128     N      0.878440000000     0.873930000000     0.047170000000    -0.160501   
O1       O      0.385920000000     0.417670000000     0.486730000000    -0.361836   
O2       O      0.018340000000     0.978370000000     0.485820000000    -0.361668   
O3       O      0.983560000000     0.380810000000     0.477910000000    -0.361456   
O4       O      0.421670000000     0.014100000000     0.486180000000    -0.36017    
O5       O      0.019640000000     0.416470000000     0.478960000000    -0.36046    
O6       O      0.385760000000     0.978330000000     0.487390000000    -0.362358   
O7       O      0.982240000000     0.013980000000     0.485960000000    -0.36156    
O8       O      0.421670000000     0.381760000000     0.483420000000    -0.360487   
O9       O      0.385820000000     0.977730000000     0.860210000000    -0.370672   
O10      O      0.018190000000     0.418620000000     0.856820000000    -0.363964   
O11      O      0.421660000000     0.383450000000     0.856300000000    -0.370415   
O12      O      0.981680000000     0.013740000000     0.859110000000    -0.369937   
O13      O      0.018010000000     0.978380000000     0.858910000000    -0.3705     
O14      O      0.385520000000     0.418960000000     0.859710000000    -0.369223   
O15      O      0.422040000000     0.013170000000     0.858620000000    -0.370127   
O16      O      0.982010000000     0.383090000000     0.855290000000    -0.36569    
O17      O      0.452200000000     0.447920000000     0.448870000000    -0.600253   
O18      O      0.232170000000     0.264190000000     0.779030000000    -0.360488   
O19      O      0.171480000000     0.132310000000     0.778830000000    -0.361251   
O20      O      0.267960000000     0.167900000000     0.776070000000    -0.36129    
O21      O      0.134310000000     0.229750000000     0.785280000000    -0.360722   
O22      O      0.232110000000     0.132080000000     0.778110000000    -0.360507   
O23      O      0.170320000000     0.265490000000     0.786130000000    -0.36026    
O24      O      0.135290000000     0.167820000000     0.779880000000    -0.36092    
O25      O      0.268050000000     0.228400000000     0.776740000000    -0.361574   
O26      O      0.172220000000     0.263380000000     0.908530000000    -0.364633   
O27      O      0.232000000000     0.133070000000     0.905360000000    -0.370177   
O28      O      0.268650000000     0.227510000000     0.903260000000    -0.369139   
O29      O      0.136170000000     0.168180000000     0.906530000000    -0.369609   
O30      O      0.172440000000     0.132770000000     0.906120000000    -0.369804   
O31      O      0.232580000000     0.263100000000     0.906390000000    -0.370365   
O32      O      0.135970000000     0.227920000000     0.907710000000    -0.364427   
O33      O      0.268200000000     0.168540000000     0.903580000000    -0.370115   
O34      O      0.201720000000     0.198330000000     0.815260000000    -0.600349   
O35      O      0.385920000000     0.417670000000     0.986730000000    -0.361582   
O36      O      0.018340000000     0.978370000000     0.985810000000    -0.361445   
O37      O      0.983560000000     0.380810000000     0.977910000000    -0.361446   
O38      O      0.421670000000     0.014100000000     0.986190000000    -0.359919   
O39      O      0.019640000000     0.416470000000     0.978960000000    -0.360474   
O40      O      0.385760000000     0.978330000000     0.987390000000    -0.362115   
O41      O      0.982240000000     0.013980000000     0.985960000000    -0.361303   
O42      O      0.421670000000     0.381760000000     0.983420000000    -0.360235   
O43      O      0.385820000000     0.977730000000     0.360210000000    -0.370684   
O44      O      0.018190000000     0.418620000000     0.356820000000    -0.363987   
O45      O      0.421660000000     0.383450000000     0.356300000000    -0.370425   
O46      O      0.981680000000     0.013740000000     0.359110000000    -0.369929   
O47      O      0.018010000000     0.978380000000     0.358910000000    -0.370512   
O48      O      0.385520000000     0.418960000000     0.359710000000    -0.369234   
O49      O      0.422040000000     0.013170000000     0.358620000000    -0.370138   
O50      O      0.982010000000     0.383090000000     0.355290000000    -0.365693   
O51      O      0.452200000000     0.447920000000     0.948870000000    -0.600231   
O52      O      0.232170000000     0.264190000000     0.279030000000    -0.360489   
O53      O      0.171480000000     0.132310000000     0.278830000000    -0.36126    
O54      O      0.267960000000     0.167900000000     0.276060000000    -0.361288   
O55      O      0.134310000000     0.229750000000     0.285270000000    -0.360718   
O56      O      0.232110000000     0.132080000000     0.278110000000    -0.360514   
O57      O      0.170320000000     0.265490000000     0.286130000000    -0.360266   
O58      O      0.135290000000     0.167820000000     0.279870000000    -0.360919   
O59      O      0.268050000000     0.228400000000     0.276740000000    -0.361571   
O60      O      0.172220000000     0.263380000000     0.408530000000    -0.364617   
O61      O      0.232000000000     0.133070000000     0.405360000000    -0.370155   
O62      O      0.268650000000     0.227510000000     0.403260000000    -0.369145   
O63      O      0.136170000000     0.168180000000     0.406530000000    -0.369621   
O64      O      0.172440000000     0.132770000000     0.406120000000    -0.369815   
O65      O      0.232580000000     0.263100000000     0.406390000000    -0.370373   
O66      O      0.135970000000     0.227920000000     0.407710000000    -0.364413   
O67      O      0.268200000000     0.168540000000     0.403580000000    -0.370092   
O68      O      0.201720000000     0.198330000000     0.315260000000    -0.600343   
O69      O      0.385920000000     0.917680000000     0.486730000000    -0.361776   
O70      O      0.018340000000     0.478370000000     0.485820000000    -0.360621   
O71      O      0.983560000000     0.880810000000     0.477910000000    -0.361472   
O72      O      0.421670000000     0.514100000000     0.486180000000    -0.360509   
O73      O      0.019640000000     0.916470000000     0.478960000000    -0.360491   
O74      O      0.385760000000     0.478330000000     0.487390000000    -0.361267   
O75      O      0.982240000000     0.513980000000     0.485960000000    -0.361953   
O76      O      0.421670000000     0.881760000000     0.483420000000    -0.360429   
O77      O      0.385820000000     0.477730000000     0.860210000000    -0.369577   
O78      O      0.018190000000     0.918620000000     0.856820000000    -0.364001   
O79      O      0.421660000000     0.883450000000     0.856300000000    -0.370396   
O80      O      0.981680000000     0.513740000000     0.859110000000    -0.370347   
O81      O      0.018010000000     0.478380000000     0.858910000000    -0.369456   
O82      O      0.385520000000     0.918960000000     0.859710000000    -0.369257   
O83      O      0.422040000000     0.513170000000     0.858620000000    -0.370491   
O84      O      0.982010000000     0.883090000000     0.855290000000    -0.365707   
O85      O      0.452200000000     0.947920000000     0.448870000000    -0.600211   
O86      O      0.232170000000     0.764190000000     0.779030000000    -0.360489   
O87      O      0.171480000000     0.632310000000     0.778830000000    -0.361256   
O88      O      0.267960000000     0.667900000000     0.776070000000    -0.361302   
O89      O      0.134310000000     0.729750000000     0.785280000000    -0.360717   
O90      O      0.232110000000     0.632080000000     0.778110000000    -0.360534   
O91      O      0.170320000000     0.765490000000     0.786130000000    -0.360262   
O92      O      0.135290000000     0.667820000000     0.779880000000    -0.360914   
O93      O      0.268050000000     0.728400000000     0.776740000000    -0.361568   
O94      O      0.172220000000     0.763380000000     0.908530000000    -0.364634   
O95      O      0.232000000000     0.633070000000     0.905360000000    -0.370204   
O96      O      0.268650000000     0.727510000000     0.903260000000    -0.369136   
O97      O      0.136170000000     0.668180000000     0.906530000000    -0.369605   
O98      O      0.172440000000     0.632770000000     0.906120000000    -0.369808   
O99      O      0.232580000000     0.763100000000     0.906390000000    -0.370365   
O100     O      0.135970000000     0.727920000000     0.907710000000    -0.364422   
O101     O      0.268200000000     0.668540000000     0.903580000000    -0.369997   
O102     O      0.201720000000     0.698330000000     0.815260000000    -0.600345   
O103     O      0.385920000000     0.917680000000     0.986730000000    -0.361523   
O104     O      0.018340000000     0.478370000000     0.985810000000    -0.360398   
O105     O      0.983560000000     0.880810000000     0.977910000000    -0.361461   
O106     O      0.421670000000     0.514100000000     0.986190000000    -0.360258   
O107     O      0.019640000000     0.916470000000     0.978960000000    -0.360505   
O108     O      0.385760000000     0.478330000000     0.987390000000    -0.361023   
O109     O      0.982240000000     0.513980000000     0.985960000000    -0.361695   
O110     O      0.421670000000     0.881760000000     0.983420000000    -0.360178   
O111     O      0.385820000000     0.477730000000     0.360210000000    -0.369589   
O112     O      0.018190000000     0.918620000000     0.356820000000    -0.364023   
O113     O      0.421660000000     0.883450000000     0.356300000000    -0.370406   
O114     O      0.981680000000     0.513740000000     0.359110000000    -0.37034    
O115     O      0.018010000000     0.478380000000     0.358910000000    -0.369469   
O116     O      0.385520000000     0.918960000000     0.359710000000    -0.369269   
O117     O      0.422040000000     0.513170000000     0.358620000000    -0.370501   
O118     O      0.982010000000     0.883090000000     0.355290000000    -0.36571    
O119     O      0.452200000000     0.947920000000     0.948870000000    -0.600189   
O120     O      0.232170000000     0.764190000000     0.279030000000    -0.36049    
O121     O      0.171480000000     0.632310000000     0.278830000000    -0.361265   
O122     O      0.267960000000     0.667900000000     0.276060000000    -0.3613     
O123     O      0.134310000000     0.729750000000     0.285270000000    -0.360713   
O124     O      0.232110000000     0.632080000000     0.278110000000    -0.360541   
O125     O      0.170320000000     0.765490000000     0.286130000000    -0.360268   
O126     O      0.135290000000     0.667820000000     0.279870000000    -0.360913   
O127     O      0.268050000000     0.728400000000     0.276740000000    -0.361565   
O128     O      0.172220000000     0.763380000000     0.408530000000    -0.364617   
O129     O      0.232000000000     0.633070000000     0.405360000000    -0.370182   
O130     O      0.268650000000     0.727510000000     0.403260000000    -0.369142   
O131     O      0.136170000000     0.668180000000     0.406530000000    -0.369617   
O132     O      0.172440000000     0.632770000000     0.406120000000    -0.369819   
O133     O      0.232580000000     0.763100000000     0.406390000000    -0.370373   
O134     O      0.135970000000     0.727920000000     0.407710000000    -0.364408   
O135     O      0.268200000000     0.668540000000     0.403580000000    -0.369975   
O136     O      0.201720000000     0.698330000000     0.315260000000    -0.600339   
O137     O      0.885920000000     0.417670000000     0.486730000000    -0.361832   
O138     O      0.518340000000     0.978370000000     0.485820000000    -0.362007   
O139     O      0.483560000000     0.380810000000     0.477910000000    -0.360516   
O140     O      0.921670000000     0.014100000000     0.486180000000    -0.360172   
O141     O      0.519640000000     0.416470000000     0.478960000000    -0.360756   
O142     O      0.885750000000     0.978330000000     0.487390000000    -0.362262   
O143     O      0.482240000000     0.013980000000     0.485960000000    -0.360688   
O144     O      0.921670000000     0.381760000000     0.483420000000    -0.360532   
O145     O      0.885820000000     0.977730000000     0.860210000000    -0.370683   
O146     O      0.518190000000     0.418620000000     0.856820000000    -0.36426    
O147     O      0.921660000000     0.383450000000     0.856300000000    -0.370455   
O148     O      0.481680000000     0.013740000000     0.859110000000    -0.369075   
O149     O      0.518010000000     0.978380000000     0.858910000000    -0.370852   
O150     O      0.885520000000     0.418960000000     0.859710000000    -0.369212   
O151     O      0.922040000000     0.013170000000     0.858620000000    -0.370154   
O152     O      0.482010000000     0.383090000000     0.855290000000    -0.364773   
O153     O      0.952200000000     0.447920000000     0.448870000000    -0.600217   
O154     O      0.732170000000     0.264190000000     0.779030000000    -0.360484   
O155     O      0.671480000000     0.132310000000     0.778830000000    -0.361247   
O156     O      0.767960000000     0.167900000000     0.776070000000    -0.361291   
O157     O      0.634310000000     0.229750000000     0.785280000000    -0.360729   
O158     O      0.732110000000     0.132080000000     0.778110000000    -0.360502   
O159     O      0.670320000000     0.265490000000     0.786130000000    -0.360258   
O160     O      0.635290000000     0.167820000000     0.779880000000    -0.360927   
O161     O      0.768050000000     0.228400000000     0.776740000000    -0.361576   
O162     O      0.672220000000     0.263380000000     0.908530000000    -0.36463    
O163     O      0.732000000000     0.133070000000     0.905360000000    -0.370158   
O164     O      0.768650000000     0.227510000000     0.903260000000    -0.36914    
O165     O      0.636170000000     0.168180000000     0.906530000000    -0.369613   
O166     O      0.672440000000     0.132770000000     0.906120000000    -0.369801   
O167     O      0.732580000000     0.263100000000     0.906390000000    -0.370361   
O168     O      0.635970000000     0.227920000000     0.907710000000    -0.364433   
O169     O      0.768200000000     0.168540000000     0.903580000000    -0.370095   
O170     O      0.701720000000     0.198330000000     0.815260000000    -0.600346   
O171     O      0.885920000000     0.417670000000     0.986730000000    -0.361578   
O172     O      0.518340000000     0.978370000000     0.985810000000    -0.361784   
O173     O      0.483560000000     0.380810000000     0.977910000000    -0.360505   
O174     O      0.921670000000     0.014100000000     0.986190000000    -0.359922   
O175     O      0.519640000000     0.416470000000     0.978960000000    -0.36077    
O176     O      0.885750000000     0.978330000000     0.987390000000    -0.362019   
O177     O      0.482240000000     0.013980000000     0.985960000000    -0.36043    
O178     O      0.921670000000     0.381760000000     0.983420000000    -0.36028    
O179     O      0.885820000000     0.977730000000     0.360210000000    -0.370695   
O180     O      0.518190000000     0.418620000000     0.356820000000    -0.364283   
O181     O      0.921660000000     0.383450000000     0.356300000000    -0.370465   
O182     O      0.481680000000     0.013740000000     0.359110000000    -0.369067   
O183     O      0.518010000000     0.978380000000     0.358910000000    -0.370864   
O184     O      0.885520000000     0.418960000000     0.359710000000    -0.369223   
O185     O      0.922040000000     0.013170000000     0.358620000000    -0.370165   
O186     O      0.482010000000     0.383090000000     0.355290000000    -0.364775   
O187     O      0.952200000000     0.447920000000     0.948870000000    -0.600196   
O188     O      0.732170000000     0.264190000000     0.279030000000    -0.360485   
O189     O      0.671480000000     0.132310000000     0.278830000000    -0.361256   
O190     O      0.767960000000     0.167900000000     0.276060000000    -0.361289   
O191     O      0.634310000000     0.229750000000     0.285270000000    -0.360725   
O192     O      0.732110000000     0.132080000000     0.278110000000    -0.36051    
O193     O      0.670320000000     0.265490000000     0.286130000000    -0.360264   
O194     O      0.635290000000     0.167820000000     0.279870000000    -0.360926   
O195     O      0.768050000000     0.228400000000     0.276740000000    -0.361573   
O196     O      0.672220000000     0.263380000000     0.408530000000    -0.364614   
O197     O      0.732000000000     0.133070000000     0.405360000000    -0.370135   
O198     O      0.768650000000     0.227510000000     0.403260000000    -0.369147   
O199     O      0.636170000000     0.168180000000     0.406530000000    -0.369625   
O200     O      0.672440000000     0.132770000000     0.406120000000    -0.369812   
O201     O      0.732580000000     0.263100000000     0.406390000000    -0.370369   
O202     O      0.635970000000     0.227920000000     0.407710000000    -0.364418   
O203     O      0.768200000000     0.168540000000     0.403580000000    -0.370073   
O204     O      0.701720000000     0.198330000000     0.315260000000    -0.60034    
O205     O      0.885920000000     0.917680000000     0.486730000000    -0.361773   
O206     O      0.518340000000     0.478370000000     0.485820000000    -0.360909   
O207     O      0.483560000000     0.880810000000     0.477910000000    -0.360513   
O208     O      0.921670000000     0.514100000000     0.486180000000    -0.360519   
O209     O      0.519640000000     0.916470000000     0.478960000000    -0.360795   
O210     O      0.885750000000     0.478330000000     0.487390000000    -0.361153   
O211     O      0.482240000000     0.513980000000     0.485960000000    -0.36103    
O212     O      0.921670000000     0.881760000000     0.483420000000    -0.360475   
O213     O      0.885820000000     0.477730000000     0.860210000000    -0.36957    
O214     O      0.518190000000     0.918620000000     0.856820000000    -0.364305   
O215     O      0.921660000000     0.883450000000     0.856300000000    -0.370437   
O216     O      0.481680000000     0.513740000000     0.859110000000    -0.369436   
O217     O      0.518010000000     0.478380000000     0.858910000000    -0.369757   
O218     O      0.885520000000     0.918960000000     0.859710000000    -0.369247   
O219     O      0.922040000000     0.513170000000     0.858620000000    -0.370526   
O220     O      0.482010000000     0.883090000000     0.855290000000    -0.364772   
O221     O      0.952200000000     0.947920000000     0.448870000000    -0.60017    
O222     O      0.732170000000     0.764190000000     0.779030000000    -0.360485   
O223     O      0.671480000000     0.632310000000     0.778830000000    -0.361253   
O224     O      0.767960000000     0.667900000000     0.776070000000    -0.361303   
O225     O      0.634310000000     0.729750000000     0.785280000000    -0.360724   
O226     O      0.732110000000     0.632080000000     0.778110000000    -0.36053    
O227     O      0.670320000000     0.765490000000     0.786130000000    -0.360259   
O228     O      0.635290000000     0.667820000000     0.779880000000    -0.360921   
O229     O      0.768050000000     0.728400000000     0.776740000000    -0.361569   
O230     O      0.672220000000     0.763380000000     0.908530000000    -0.364631   
O231     O      0.732000000000     0.633070000000     0.905360000000    -0.370185   
O232     O      0.768650000000     0.727510000000     0.903260000000    -0.369137   
O233     O      0.636170000000     0.668180000000     0.906530000000    -0.369609   
O234     O      0.672440000000     0.632770000000     0.906120000000    -0.369805   
O235     O      0.732580000000     0.763100000000     0.906390000000    -0.370361   
O236     O      0.635970000000     0.727920000000     0.907710000000    -0.364428   
O237     O      0.768200000000     0.668540000000     0.903580000000    -0.369977   
O238     O      0.701720000000     0.698330000000     0.815260000000    -0.600343   
O239     O      0.885920000000     0.917680000000     0.986730000000    -0.36152    
O240     O      0.518340000000     0.478370000000     0.985810000000    -0.360685   
O241     O      0.483560000000     0.880810000000     0.977910000000    -0.360502   
O242     O      0.921670000000     0.514100000000     0.986190000000    -0.360268   
O243     O      0.519640000000     0.916470000000     0.978960000000    -0.360809   
O244     O      0.885750000000     0.478330000000     0.987390000000    -0.360909   
O245     O      0.482240000000     0.513980000000     0.985960000000    -0.360772   
O246     O      0.921670000000     0.881760000000     0.983420000000    -0.360224   
O247     O      0.885820000000     0.477730000000     0.360210000000    -0.369582   
O248     O      0.518190000000     0.918620000000     0.356820000000    -0.364327   
O249     O      0.921660000000     0.883450000000     0.356300000000    -0.370446   
O250     O      0.481680000000     0.513740000000     0.359110000000    -0.369428   
O251     O      0.518010000000     0.478380000000     0.358910000000    -0.36977    
O252     O      0.885520000000     0.918960000000     0.359710000000    -0.369259   
O253     O      0.922040000000     0.513170000000     0.358620000000    -0.370537   
O254     O      0.482010000000     0.883090000000     0.355290000000    -0.364775   
O255     O      0.952200000000     0.947920000000     0.948870000000    -0.600148   
O256     O      0.732170000000     0.764190000000     0.279030000000    -0.360486   
O257     O      0.671480000000     0.632310000000     0.278830000000    -0.361261   
O258     O      0.767960000000     0.667900000000     0.276060000000    -0.361301   
O259     O      0.634310000000     0.729750000000     0.285270000000    -0.36072    
O260     O      0.732110000000     0.632080000000     0.278110000000    -0.360537   
O261     O      0.670320000000     0.765490000000     0.286130000000    -0.360266   
O262     O      0.635290000000     0.667820000000     0.279870000000    -0.36092    
O263     O      0.768050000000     0.728400000000     0.276740000000    -0.361566   
O264     O      0.672220000000     0.763380000000     0.408530000000    -0.364615   
O265     O      0.732000000000     0.633070000000     0.405360000000    -0.370162   
O266     O      0.768650000000     0.727510000000     0.403260000000    -0.369144   
O267     O      0.636170000000     0.668180000000     0.406530000000    -0.369621   
O268     O      0.672440000000     0.632770000000     0.406120000000    -0.369816   
O269     O      0.732580000000     0.763100000000     0.406390000000    -0.370369   
O270     O      0.635970000000     0.727920000000     0.407710000000    -0.364413   
O271     O      0.768200000000     0.668540000000     0.403580000000    -0.369955   
O272     O      0.701720000000     0.698330000000     0.315260000000    -0.600337   


