data_structure

_audit_creation_method RASPA-1.0
_audit_creation_date 2023-6-4
_audit_author_name 'Poobodin Mano'

_cell_length_a    30.5165
_cell_length_b    29.5588
_cell_length_c    31.3067
_cell_angle_alpha 87.1362
_cell_angle_beta  93.8196
_cell_angle_gamma 120.432
_cell_volume      24290.7

_symmetry_cell_setting          triclinic
_symmetry_space_group_name_Hall 'P 1'
_symmetry_space_group_name_H-M  'P 1'
_symmetry_Int_Tables_number     1

_symmetry_equiv_pos_as_xyz 'x,y,z'

loop_
_atom_site_label
_atom_site_type_symbol
_atom_site_fract_x
_atom_site_fract_y
_atom_site_fract_z
_atom_site_charge
C1       C      0.009970000000     0.160850000000     0.002130000000     0.437524   
C2       C      0.954310000000     0.008520000000     0.033450000000     0.465158   
C3       C      0.075010000000     0.108000000000     0.937830000000     0.504489   
C4       C      0.973480000000     0.091530000000     0.147350000000     0.371421   
C5       C      0.102410000000     0.125650000000     0.145700000000     0.447276   
C6       C      0.174610000000     0.125110000000     0.018290000000     0.477441   
C7       C      0.110990000000     0.234850000000     0.074600000000     0.451158   
C8       C      0.048450000000     0.987760000000     0.087190000000     0.443681   
C9       C      0.093840000000     0.057750000000     0.438280000000     0.446536   
C10      C      0.060190000000     0.140960000000     0.584200000000     0.456249   
C11      C      0.967700000000     0.039820000000     0.544470000000     0.459998   
C12      C      0.182410000000     0.144440000000     0.486590000000     0.459182   
C13      C      0.200980000000     0.085390000000     0.586470000000     0.456521   
C14      C      0.993230000000     0.933420000000     0.569360000000     0.464824   
C15      C      0.065710000000     0.941780000000     0.499360000000     0.447363   
C16      C      0.127940000000     0.089620000000     0.648400000000     0.459032   
C17      C      0.977310000000     0.508630000000     0.966170000000     0.452059   
C18      C      0.048290000000     0.696350000000     0.008140000000     0.475475   
C19      C      0.930570000000     0.532760000000     0.082080000000     0.410861   
C20      C      0.090580000000     0.598640000000     0.927670000000     0.477845   
C21      C      0.181850000000     0.607830000000     0.017940000000     0.467476   
C22      C      0.056620000000     0.563380000000     0.128610000000     0.477849   
C23      C      0.018780000000     0.455660000000     0.052310000000     0.447438   
C24      C      0.155350000000     0.710870000000     0.075640000000     0.479228   
C25      C      0.988820000000     0.470970000000     0.489190000000     0.467886   
C26      C      0.094460000000     0.656800000000     0.465160000000     0.472561   
C27      C      0.971470000000     0.543760000000     0.576140000000     0.415768   
C28      C      0.118340000000     0.547380000000     0.426530000000     0.525415   
C29      C      0.204470000000     0.550050000000     0.515740000000     0.545541   
C30      C      0.098980000000     0.585710000000     0.628330000000     0.467979   
C31      C      0.049400000000     0.442390000000     0.583980000000     0.463607   
C32      C      0.187430000000     0.691160000000     0.558880000000     0.466456   
C33      C      0.501740000000     0.137220000000     0.059100000000     0.473146   
C34      C      0.642410000000     0.021980000000     0.008380000000     0.37797    
C35      C      0.576070000000     0.082140000000     0.956140000000     0.481435   
C36      C      0.483300000000     0.013520000000     0.075780000000     0.435707   
C37      C      0.580270000000     0.051200000000     0.161460000000     0.437154   
C38      C      0.687940000000     0.194260000000     0.995490000000     0.488041   
C39      C      0.636170000000     0.219760000000     0.091080000000     0.467486   
C40      C      0.679500000000     0.075150000000     0.111270000000     0.466216   
C41      C      0.452690000000     0.062560000000     0.518440000000     0.45955    
C42      C      0.531860000000     0.957240000000     0.540660000000     0.508455   
C43      C      0.535690000000     0.095330000000     0.446280000000     0.459323   
C44      C      0.461950000000     0.995960000000     0.642280000000     0.397133   
C45      C      0.583870000000     0.110690000000     0.661270000000     0.479758   
C46      C      0.656170000000     0.179580000000     0.503230000000     0.449303   
C47      C      0.523430000000     0.163630000000     0.595420000000     0.441884   
C48      C      0.664710000000     0.066170000000     0.558780000000     0.517794   
C49      C      0.452650000000     0.467740000000     0.084210000000     0.403844   
C50      C      0.625880000000     0.720150000000     0.062050000000     0.478141   
C51      C      0.491820000000     0.604760000000     0.108310000000     0.47488    
C52      C      0.582980000000     0.624030000000     0.990530000000     0.450171   
C53      C      0.655820000000     0.562940000000     0.029020000000     0.451022   
C54      C      0.563380000000     0.578290000000     0.197640000000     0.456329   
C55      C      0.570620000000     0.476640000000     0.106510000000     0.454539   
C56      C      0.706380000000     0.698260000000     0.135450000000     0.472003   
C57      C      0.455180000000     0.434800000000     0.566850000000     0.456973   
C58      C      0.574070000000     0.663590000000     0.575010000000     0.456968   
C59      C      0.490610000000     0.595620000000     0.642930000000     0.461095   
C60      C      0.537280000000     0.499830000000     0.502580000000     0.436344   
C61      C      0.652470000000     0.535240000000     0.562870000000     0.438661   
C62      C      0.548010000000     0.538800000000     0.712330000000     0.455574   
C63      C      0.522530000000     0.439250000000     0.669930000000     0.45703    
C64      C      0.679640000000     0.640750000000     0.604530000000     0.46759    
C65      C      0.614350000000     0.641680000000     0.886910000000     0.0141066  
C66      C      0.651960000000     0.617640000000     0.832890000000    -0.0433883  
C67      C      0.598370000000     0.546530000000     0.779920000000    -0.0220152  
C68      C      0.603520000000     0.580510000000     0.816420000000     0.0116199  
C69      C      0.503660000000     0.504380000000     0.780390000000    -0.0201962  
C70      C      0.510560000000     0.536530000000     0.819010000000     0.0112359  
C71      C      0.657320000000     0.648380000000     0.867430000000    -0.0420811  
C72      C      0.559730000000     0.573280000000     0.835530000000    -0.00491994 
C73      C      0.467660000000     0.528820000000     0.839370000000    -0.0423907  
C74      C      0.472990000000     0.557670000000     0.875270000000    -0.0436455  
C75      C      0.526650000000     0.626070000000     0.930390000000    -0.0224644  
C76      C      0.521380000000     0.594690000000     0.891760000000     0.0141561  
C77      C      0.620330000000     0.674830000000     0.924420000000    -0.0199488  
C78      C      0.565160000000     0.603530000000     0.871360000000    -0.0062514  
C79      C      0.501530000000     0.522990000000     0.301890000000     0.0114005  
C80      C      0.449620000000     0.495070000000     0.364070000000    -0.0436872  
C81      C      0.482570000000     0.483540000000     0.437110000000    -0.0260177  
C82      C      0.489380000000     0.495660000000     0.389720000000     0.0122228  
C83      C      0.561820000000     0.475820000000     0.437730000000    -0.0227118  
C84      C      0.573360000000     0.503910000000     0.394650000000     0.011159   
C85      C      0.455090000000     0.507000000000     0.320330000000    -0.0430338  
C86      C      0.535100000000     0.508720000000     0.370940000000    -0.00661219 
C87      C      0.620390000000     0.521920000000     0.376440000000    -0.043469   
C88      C      0.629550000000     0.545710000000     0.335620000000    -0.0438086  
C89      C      0.602270000000     0.580030000000     0.269410000000    -0.0215552  
C90      C      0.590580000000     0.548040000000     0.310820000000     0.0120259  
C91      C      0.504850000000     0.528560000000     0.253880000000    -0.0217595  
C92      C      0.542510000000     0.526820000000     0.327760000000    -0.00662269 
C93      C      0.510650000000     0.833410000000     0.503440000000     0.00857785 
C94      C      0.528150000000     0.769880000000     0.473800000000    -0.0438278  
C95      C      0.553060000000     0.713310000000     0.520170000000    -0.0226679  
C96      C      0.541310000000     0.757480000000     0.514780000000     0.0113785  
C97      C      0.587750000000     0.748890000000     0.595280000000    -0.0213746  
C98      C      0.557580000000     0.776290000000     0.590970000000     0.0101784  
C99      C      0.514260000000     0.808350000000     0.468080000000    -0.0428715  
C100     C      0.540060000000     0.784050000000     0.550260000000    -0.00740928 
C101     C      0.551690000000     0.799130000000     0.626790000000    -0.0457388  
C102     C      0.527920000000     0.828920000000     0.622200000000    -0.0436985  
C103     C      0.486210000000     0.869990000000     0.575610000000    -0.0187008  
C104     C      0.513090000000     0.839420000000     0.581370000000     0.011671   
C105     C      0.497320000000     0.876640000000     0.496790000000    -0.0181123  
C106     C      0.521050000000     0.818950000000     0.544990000000    -0.00649951 
C107     C      0.475570000000     0.231780000000     0.659570000000     0.0088389  
C108     C      0.427920000000     0.268900000000     0.686900000000    -0.0440656  
C109     C      0.471930000000     0.361210000000     0.714940000000    -0.0230486  
C110     C      0.473200000000     0.315280000000     0.697010000000     0.0135629  
C111     C      0.565600000000     0.408900000000     0.722720000000    -0.0227918  
C112     C      0.566820000000     0.364710000000     0.702180000000     0.0154967  
C113     C      0.429250000000     0.227380000000     0.668970000000    -0.0432378  
C114     C      0.520480000000     0.319070000000     0.690300000000    -0.0103463  
C115     C      0.613200000000     0.368650000000     0.694430000000    -0.0458682  
C116     C      0.613900000000     0.328810000000     0.673190000000    -0.0438549  
C117     C      0.571790000000     0.245550000000     0.633030000000    -0.0210721  
C118     C      0.568370000000     0.283870000000     0.660180000000     0.00654881 
C119     C      0.474910000000     0.185310000000     0.641270000000    -0.0216794  
C120     C      0.521450000000     0.277850000000     0.669990000000    -0.00550651 
C121     C      0.608980000000     0.076200000000     0.849280000000     0.0112769  
C122     C      0.664590000000     0.106800000000     0.789390000000    -0.0437873  
C123     C      0.646900000000     0.147650000000     0.722670000000    -0.0219048  
C124     C      0.632890000000     0.121970000000     0.766520000000     0.0124189  
C125     C      0.569230000000     0.155510000000     0.719050000000    -0.02256    
C126     C      0.556530000000     0.129990000000     0.762940000000     0.0143994  
C127     C      0.652490000000     0.083690000000     0.830110000000    -0.0426251  
C128     C      0.589030000000     0.115040000000     0.785470000000    -0.00732822 
C129     C      0.513450000000     0.123220000000     0.782300000000    -0.0432376  
C130     C      0.501900000000     0.100970000000     0.823320000000    -0.0427395  
C131     C      0.519500000000     0.060780000000     0.890270000000    -0.02017    
C132     C      0.533590000000     0.085780000000     0.846230000000     0.0100204  
C133     C      0.595730000000     0.049550000000     0.892730000000    -0.0208583  
C134     C      0.577100000000     0.092140000000     0.827150000000    -0.00510748 
C135     C      0.530340000000     0.009330000000     0.268570000000     0.00855142 
C136     C      0.473250000000     0.980560000000     0.327390000000    -0.0436137  
C137     C      0.481700000000     0.041640000000     0.384870000000    -0.0236935  
C138     C      0.499040000000     0.031230000000     0.344200000000     0.01025    
C139     C      0.544700000000     0.137440000000     0.374530000000    -0.0220179  
C140     C      0.564980000000     0.123940000000     0.337470000000     0.0105606  
C141     C      0.488450000000     0.969850000000     0.289880000000    -0.0428984  
C142     C      0.540150000000     0.071980000000     0.322440000000    -0.00731003 
C143     C      0.607410000000     0.163310000000     0.316680000000    -0.0436452  
C144     C      0.626060000000     0.151260000000     0.282150000000    -0.0445884  
C145     C      0.623420000000     0.086340000000     0.231410000000    -0.0248214  
C146     C      0.601140000000     0.100120000000     0.266370000000     0.0105154  
C147     C      0.545360000000     0.996650000000     0.227310000000    -0.0223657  
C148     C      0.557260000000     0.060430000000     0.285630000000    -0.00752953 
C149     C      0.675120000000     0.842690000000     0.998990000000     0.0110457  
C150     C      0.727890000000     0.935330000000     0.981050000000    -0.0443917  
C151     C      0.690860000000     0.994270000000     0.966760000000    -0.0252952  
C152     C      0.684860000000     0.940780000000     0.976860000000     0.0137111  
C153     C      0.596720000000     0.949850000000     0.957420000000    -0.0241656  
C154     C      0.591690000000     0.899430000000     0.974430000000     0.0163137  
C155     C      0.723040000000     0.886620000000     0.991520000000    -0.0424453  
C156     C      0.635980000000     0.895930000000     0.981830000000    -0.00865019 
C157     C      0.543690000000     0.855540000000     0.980780000000    -0.044102   
C158     C      0.539470000000     0.808460000000     0.995800000000    -0.0430343  
C159     C      0.576630000000     0.752970000000     0.020920000000    -0.0209976  
C160     C      0.583000000000     0.804120000000     0.003480000000     0.0103706  
C161     C      0.670470000000     0.790380000000     0.009270000000    -0.0185001  
C162     C      0.631380000000     0.847310000000     0.994810000000    -0.004071   
C163     C      0.655610000000     0.334970000000     0.067970000000     0.015455   
C164     C      0.598510000000     0.362910000000     0.036810000000    -0.045224   
C165     C      0.554030000000     0.391130000000     0.084470000000    -0.0216351  
C166     C      0.593380000000     0.377260000000     0.077400000000     0.0170663  
C167     C      0.593770000000     0.423750000000     0.157940000000    -0.0212178  
C168     C      0.618300000000     0.390250000000     0.153720000000     0.0122133  
C169     C      0.630650000000     0.343130000000     0.031960000000    -0.0410291  
C170     C      0.620610000000     0.372250000000     0.113370000000    -0.00593763 
C171     C      0.639680000000     0.377360000000     0.190050000000    -0.043303   
C172     C      0.661840000000     0.346210000000     0.186540000000    -0.0427643  
C173     C      0.685570000000     0.292290000000     0.142480000000    -0.0212697  
C174     C      0.665580000000     0.329770000000     0.146310000000     0.0101504  
C175     C      0.686870000000     0.309710000000     0.064310000000    -0.0193302  
C176     C      0.648340000000     0.346630000000     0.109200000000    -0.00490284 
C177     C      0.853750000000     0.408400000000     0.472420000000     0.016407   
C178     C      0.768810000000     0.370900000000     0.497970000000    -0.0410147  
C179     C      0.706400000000     0.274730000000     0.498070000000    -0.0208407  
C180     C      0.757650000000     0.320360000000     0.487640000000     0.00942609 
C181     C      0.728640000000     0.217760000000     0.455920000000    -0.0196382  
C182     C      0.782670000000     0.263520000000     0.455930000000     0.00942874 
C183     C      0.816070000000     0.414500000000     0.489920000000    -0.0438754  
C184     C      0.794360000000     0.313570000000     0.468770000000    -0.00382263 
C185     C      0.820610000000     0.257530000000     0.438540000000    -0.0420691  
C186     C      0.869670000000     0.300410000000     0.434390000000    -0.0438516  
C187     C      0.934850000000     0.396640000000     0.440660000000    -0.0202698  
C188     C      0.881690000000     0.350650000000     0.446450000000     0.0133327  
C189     C      0.904280000000     0.456030000000     0.462940000000    -0.0214029  
C190     C      0.843510000000     0.357730000000     0.462540000000    -0.00660913 
C191     C      0.307830000000     0.772800000000     0.623720000000     0.00919726 
C192     C      0.395330000000     0.819140000000     0.652660000000    -0.0457112  
C193     C      0.436270000000     0.911210000000     0.680410000000    -0.0242567  
C194     C      0.391310000000     0.863030000000     0.660510000000     0.0126801  
C195     C      0.382490000000     0.951940000000     0.681710000000    -0.0239419  
C196     C      0.338610000000     0.903920000000     0.661240000000     0.0174124  
C197     C      0.354180000000     0.774670000000     0.634280000000    -0.0437154  
C198     C      0.344260000000     0.861080000000     0.651440000000    -0.00827126 
C199     C      0.291310000000     0.900460000000     0.654070000000    -0.0445315  
C200     C      0.250590000000     0.856410000000     0.634810000000    -0.043691   
C201     C      0.210490000000     0.767900000000     0.602010000000    -0.0206001  
C202     C      0.255920000000     0.814340000000     0.623000000000     0.00844626 
C203     C      0.264060000000     0.723130000000     0.605620000000    -0.02058    
C204     C      0.302440000000     0.815830000000     0.632440000000    -0.00453759 
C205     C      0.867580000000     0.571030000000     0.545400000000     0.0128328  
C206     C      0.810060000000     0.592730000000     0.503990000000    -0.0429248  
C207     C      0.715000000000     0.541050000000     0.512550000000    -0.0201751  
C208     C      0.768250000000     0.551350000000     0.523880000000     0.00772226 
C209     C      0.682650000000     0.471840000000     0.570440000000    -0.021273   
C210     C      0.735050000000     0.478760000000     0.576380000000     0.0105842  
C211     C      0.859270000000     0.603170000000     0.515330000000    -0.0444503  
C212     C      0.776160000000     0.518860000000     0.554300000000    -0.00506957 
C213     C      0.742860000000     0.444860000000     0.604490000000    -0.0428465  
C214     C      0.791380000000     0.451870000000     0.612220000000    -0.0444436  
C215     C      0.885330000000     0.499960000000     0.603160000000    -0.025074   
C216     C      0.833370000000     0.493380000000     0.592520000000     0.0126591  
C217     C      0.921070000000     0.586230000000     0.560120000000    -0.0241825  
C218     C      0.825990000000     0.527640000000     0.563920000000    -0.00909491 
C219     C      0.292370000000     0.517320000000     0.572020000000     0.0104778  
C220     C      0.328460000000     0.491520000000     0.633290000000    -0.0428146  
C221     C      0.407910000000     0.557450000000     0.673950000000    -0.0144525  
C222     C      0.368350000000     0.543410000000     0.637880000000     0.0134234  
C223     C      0.452700000000     0.650040000000     0.648270000000    -0.0234308  
C224     C      0.411440000000     0.635600000000     0.613260000000     0.0160802  
C225     C      0.291080000000     0.478560000000     0.600470000000    -0.0425863  
C226     C      0.370790000000     0.583060000000     0.609340000000    -0.00253937 
C227     C      0.412740000000     0.674430000000     0.585020000000    -0.0441481  
C228     C      0.375650000000     0.661390000000     0.552000000000    -0.0401975  
C229     C      0.297690000000     0.595370000000     0.510190000000    -0.0151226  
C230     C      0.335680000000     0.609440000000     0.547320000000     0.012596   
C231     C      0.250180000000     0.502440000000     0.537770000000    -0.0163259  
C232     C      0.332830000000     0.569870000000     0.576040000000    -0.00250697 
C233     C      0.112890000000     0.551760000000     0.738140000000     0.0136719  
C234     C      0.083600000000     0.502930000000     0.804740000000    -0.042574   
C235     C      0.064910000000     0.539560000000     0.866860000000    -0.018767   
C236     C      0.082690000000     0.545160000000     0.822280000000     0.0107111  
C237     C      0.072750000000     0.628490000000     0.857210000000    -0.0191446  
C238     C      0.093690000000     0.633190000000     0.813980000000     0.011092   
C239     C      0.098540000000     0.506200000000     0.763110000000    -0.0428613  
C240     C      0.096220000000     0.591060000000     0.797440000000    -0.00419614 
C241     C      0.108470000000     0.678970000000     0.789090000000    -0.0424135  
C242     C      0.126300000000     0.683480000000     0.748390000000    -0.0430935  
C243     C      0.147240000000     0.646940000000     0.687210000000    -0.0210985  
C244     C      0.127880000000     0.641550000000     0.731120000000     0.0136554  
C245     C      0.127580000000     0.553760000000     0.692770000000    -0.0206999  
C246     C      0.112720000000     0.594940000000     0.755490000000    -0.00607932 
C247     C      0.132110000000     0.588840000000     0.224330000000     0.0140124  
C248     C      0.163200000000     0.636860000000     0.290090000000    -0.0420852  
C249     C      0.126080000000     0.596050000000     0.359910000000    -0.0164157  
C250     C      0.130900000000     0.591460000000     0.313450000000     0.00946971 
C251     C      0.068170000000     0.496520000000     0.363960000000    -0.0169624  
C252     C      0.068120000000     0.497610000000     0.315700000000     0.00833318 
C253     C      0.164550000000     0.635330000000     0.245980000000    -0.0435773  
C254     C      0.099520000000     0.543870000000     0.292420000000    -0.00376728 
C255     C      0.035300000000     0.451260000000     0.293650000000    -0.0420751  
C256     C      0.033120000000     0.450640000000     0.249010000000    -0.0438984  
C257     C      0.059310000000     0.495680000000     0.177030000000    -0.0196342  
C258     C      0.064080000000     0.496310000000     0.225430000000     0.0120995  
C259     C      0.132050000000     0.588160000000     0.176660000000    -0.0187328  
C260     C      0.098970000000     0.542800000000     0.247250000000    -0.00669416 
C261     C      0.818090000000     0.288890000000     0.955740000000     0.00983781 
C262     C      0.906500000000     0.342410000000     0.936960000000    -0.0421988  
C263     C      0.942700000000     0.437550000000     0.913950000000    -0.0207356  
C264     C      0.900720000000     0.386450000000     0.931000000000     0.0189918  
C265     C      0.893750000000     0.481450000000     0.927560000000    -0.0221769  
C266     C      0.848330000000     0.427180000000     0.935240000000     0.0177547  
C267     C      0.865870000000     0.294420000000     0.950210000000    -0.0414471  
C268     C      0.853720000000     0.382240000000     0.938220000000    -0.00673598 
C269     C      0.799970000000     0.421020000000     0.938090000000    -0.0452875  
C270     C      0.757560000000     0.371180000000     0.943780000000    -0.0424216  
C271     C      0.716910000000     0.272770000000     0.949100000000    -0.0184401  
C272     C      0.763050000000     0.326810000000     0.948930000000     0.00866708 
C273     C      0.775390000000     0.236610000000     0.971360000000    -0.0196944  
C274     C      0.811470000000     0.332500000000     0.948000000000    -0.00288323 
C275     C      0.286600000000     0.794300000000     0.086650000000     0.0143761  
C276     C      0.366120000000     0.838920000000     0.050670000000    -0.0428192  
C277     C      0.412140000000     0.937200000000     0.039230000000    -0.0221905  
C278     C      0.371060000000     0.887590000000     0.058740000000     0.0127748  
C279     C      0.393960000000     0.988990000000     0.090020000000    -0.0229317  
C280     C      0.342330000000     0.938630000000     0.094450000000     0.0105224  
C281     C      0.325190000000     0.792720000000     0.066050000000    -0.0436903  
C282     C      0.334540000000     0.889810000000     0.082060000000    -0.00662616 
C283     C      0.302350000000     0.939890000000     0.113210000000    -0.0440054  
C284     C      0.255840000000     0.893520000000     0.119960000000    -0.0434872  
C285     C      0.197910000000     0.794030000000     0.117420000000    -0.0218425  
C286     C      0.248910000000     0.844340000000     0.110110000000     0.00937117 
C287     C      0.243120000000     0.745180000000     0.104210000000    -0.0208635  
C288     C      0.289790000000     0.842640000000     0.093000000000    -0.007112   
C289     C      0.801350000000     0.488680000000     0.060170000000     0.0175856  
C290     C      0.729020000000     0.462380000000     0.009180000000    -0.040361   
C291     C      0.691990000000     0.520770000000     0.989070000000    -0.0205357  
C292     C      0.731280000000     0.510480000000     0.013240000000     0.0106677  
C293     C      0.745260000000     0.614010000000     0.010980000000    -0.00866974 
C294     C      0.778200000000     0.600220000000     0.039870000000     0.0126092  
C295     C      0.763650000000     0.451640000000     0.032320000000    -0.0436601  
C296     C      0.771570000000     0.549630000000     0.038740000000    -0.000857565
C297     C      0.817690000000     0.638340000000     0.065480000000    -0.0382071  
C298     C      0.850200000000     0.626880000000     0.090680000000    -0.044787   
C299     C      0.881620000000     0.566100000000     0.116180000000    -0.0231169  
C300     C      0.845370000000     0.577430000000     0.089200000000     0.017867   
C301     C      0.837080000000     0.475830000000     0.086680000000    -0.0247276  
C302     C      0.805930000000     0.538330000000     0.063100000000    -0.00736769 
C303     C      0.315420000000     0.638910000000     0.014000000000     0.00972441 
C304     C      0.388750000000     0.634500000000     0.993810000000    -0.0441631  
C305     C      0.442910000000     0.616380000000     0.048330000000    -0.0218477  
C306     C      0.401610000000     0.629540000000     0.037020000000     0.00984443 
C307     C      0.440830000000     0.644090000000     0.124150000000    -0.019605   
C308     C      0.387730000000     0.632990000000     0.112190000000     0.0127207  
C309     C      0.347120000000     0.641060000000     0.982500000000    -0.0435669  
C310     C      0.372300000000     0.631440000000     0.068810000000    -0.00613328 
C311     C      0.355420000000     0.629590000000     0.143610000000    -0.0432246  
C312     C      0.307360000000     0.622430000000     0.131790000000    -0.0428251  
C313     C      0.237970000000     0.605850000000     0.075890000000    -0.0208709  
C314     C      0.292650000000     0.623110000000     0.088420000000     0.00849175 
C315     C      0.272400000000     0.649430000000     0.002700000000    -0.0203589  
C316     C      0.326680000000     0.631310000000     0.057010000000    -0.00610707 
C317     C      0.914680000000     0.808070000000     0.623090000000     0.0103004  
C318     C      0.849240000000     0.746140000000     0.670080000000    -0.0430622  
C319     C      0.764160000000     0.673330000000     0.641810000000    -0.0184421  
C320     C      0.816630000000     0.720220000000     0.634730000000     0.0111054  
C321     C      0.752310000000     0.662700000000     0.562080000000    -0.0209302  
C322     C      0.802670000000     0.711230000000     0.556870000000     0.0139336  
C323     C      0.897670000000     0.789540000000     0.664340000000    -0.042608   
C324     C      0.833840000000     0.737470000000     0.592990000000    -0.00513637 
C325     C      0.820420000000     0.727660000000     0.515640000000    -0.0433358  
C326     C      0.868060000000     0.771380000000     0.509880000000    -0.042826   
C327     C      0.950030000000     0.846140000000     0.537780000000    -0.0202402  
C328     C      0.898930000000     0.799230000000     0.545240000000     0.0127826  
C329     C      0.966940000000     0.855650000000     0.617420000000    -0.0174898  
C330     C      0.882760000000     0.781750000000     0.587140000000    -0.00440315 
C331     C      0.302060000000     0.231530000000     0.457310000000     0.0132948  
C332     C      0.391250000000     0.278920000000     0.479760000000    -0.0440378  
C333     C      0.431710000000     0.364390000000     0.517050000000    -0.0220734  
C334     C      0.386280000000     0.319970000000     0.494760000000     0.00903758 
C335     C      0.379470000000     0.409990000000     0.519240000000    -0.019993   
C336     C      0.334590000000     0.360910000000     0.501100000000     0.0084696  
C337     C      0.349580000000     0.235180000000     0.461170000000    -0.0441547  
C338     C      0.339660000000     0.318760000000     0.488500000000    -0.00527013 
C339     C      0.287690000000     0.358850000000     0.494030000000    -0.0433821  
C340     C      0.245760000000     0.314990000000     0.475650000000    -0.0459493  
C341     C      0.204950000000     0.225000000000     0.443670000000    -0.0237037  
C342     C      0.249940000000     0.272340000000     0.463820000000     0.0124135  
C343     C      0.256240000000     0.181990000000     0.440500000000    -0.0211369  
C344     C      0.297160000000     0.274230000000     0.469610000000    -0.00865729 
C345     C      0.857900000000     0.042820000000     0.586020000000     0.00940466 
C346     C      0.799930000000     0.050730000000     0.630400000000    -0.0434335  
C347     C      0.742920000000     0.084260000000     0.601020000000    -0.0171615  
C348     C      0.783130000000     0.070100000000     0.595290000000     0.0101268  
C349     C      0.745450000000     0.107230000000     0.522300000000    -0.0185558  
C350     C      0.788310000000     0.096360000000     0.519580000000     0.0106497  
C351     C      0.836240000000     0.036370000000     0.625620000000    -0.0439858  
C352     C      0.805230000000     0.077680000000     0.555430000000    -0.00480446 
C353     C      0.812140000000     0.105790000000     0.480740000000    -0.0422183  
C354     C      0.851000000000     0.094790000000     0.476830000000    -0.043353   
C355     C      0.908070000000     0.061180000000     0.504990000000    -0.0219654  
C356     C      0.866990000000     0.074040000000     0.511610000000     0.0111674  
C357     C      0.892530000000     0.021560000000     0.581140000000    -0.0208573  
C358     C      0.843820000000     0.065030000000     0.551050000000    -0.0066124  
C359     C      0.273010000000     0.031690000000     0.594060000000     0.0134484  
C360     C      0.290180000000     0.969890000000     0.561150000000    -0.0427067  
C361     C      0.360030000000     0.999300000000     0.509190000000    -0.019871   
C362     C      0.328750000000     0.010750000000     0.537880000000     0.016137   
C363     C      0.396970000000     0.090140000000     0.480700000000    -0.019579   
C364     C      0.373040000000     0.103470000000     0.514800000000     0.0167384  
C365     C      0.262210000000     0.980210000000     0.588640000000    -0.0423369  
C366     C      0.337550000000     0.062490000000     0.540790000000    -0.00433581 
C367     C      0.384690000000     0.155160000000     0.520540000000    -0.0410077  
C368     C      0.359740000000     0.166240000000     0.550630000000    -0.0436785  
C369     C      0.292500000000     0.137290000000     0.605200000000    -0.0227771  
C370     C      0.321790000000     0.125620000000     0.574610000000     0.0138575  
C371     C      0.243930000000     0.042910000000     0.624850000000    -0.0216735  
C372     C      0.311010000000     0.073380000000     0.570190000000    -0.00697324 
C373     C      0.031810000000     0.818620000000     0.446200000000     0.00857379 
C374     C      0.987650000000     0.725900000000     0.429330000000    -0.0447663  
C375     C      0.035200000000     0.677420000000     0.421510000000    -0.0228497  
C376     C      0.034200000000     0.727000000000     0.429710000000     0.0130617  
C377     C      0.129020000000     0.733170000000     0.415890000000    -0.020046   
C378     C      0.127590000000     0.778720000000     0.433640000000     0.015222   
C379     C      0.986570000000     0.771710000000     0.436290000000    -0.0419271  
C380     C      0.080010000000     0.774890000000     0.437340000000    -0.00785252 
C381     C      0.172380000000     0.824890000000     0.445590000000    -0.0433136  
C382     C      0.169820000000     0.866450000000     0.462190000000    -0.042204   
C383     C      0.120380000000     0.906470000000     0.486870000000    -0.0180978  
C384     C      0.122800000000     0.863940000000     0.464240000000     0.00785318 
C385     C      0.032350000000     0.869630000000     0.448650000000    -0.019421   
C386     C      0.078140000000     0.819250000000     0.449400000000    -0.00399277 
C387     C      0.003540000000     0.222160000000     0.614640000000     0.0107055  
C388     C      0.954070000000     0.264300000000     0.625700000000    -0.0432923  
C389     C      0.995220000000     0.363790000000     0.628900000000    -0.0239428  
C390     C      0.998330000000     0.314060000000     0.625820000000     0.0116167  
C391     C      0.089680000000     0.412430000000     0.639770000000    -0.0202465  
C392     C      0.091610000000     0.365810000000     0.626090000000     0.0160311  
C393     C      0.956840000000     0.218760000000     0.621360000000    -0.0421478  
C394     C      0.045840000000     0.317330000000     0.622190000000    -0.00929    
C395     C      0.137850000000     0.369740000000     0.617590000000    -0.044248   
C396     C      0.138340000000     0.326200000000     0.603130000000    -0.0424828  
C397     C      0.091190000000     0.233970000000     0.576370000000    -0.0149517  
C398     C      0.093180000000     0.277360000000     0.600470000000     0.00894622 
C399     C      0.006960000000     0.172620000000     0.612620000000    -0.0221119  
C400     C      0.047580000000     0.272020000000     0.612880000000    -0.00458143 
C401     C      0.154670000000     0.150420000000     0.750780000000     0.011784   
C402     C      0.147570000000     0.201030000000     0.805940000000    -0.0424563  
C403     C      0.093810000000     0.158960000000     0.869530000000    -0.0180832  
C404     C      0.114320000000     0.154910000000     0.828120000000     0.00961546 
C405     C      0.038130000000     0.060470000000     0.870000000000    -0.0178093  
C406     C      0.064730000000     0.058880000000     0.831680000000     0.00932147 
C407     C      0.167350000000     0.198810000000     0.767670000000    -0.0432708  
C408     C      0.099990000000     0.105780000000     0.811030000000    -0.00423321 
C409     C      0.052260000000     0.010410000000     0.814980000000    -0.0431639  
C410     C      0.075230000000     0.008200000000     0.778710000000    -0.0453512  
C411     C      0.135570000000     0.051840000000     0.719050000000    -0.0231631  
C412     C      0.109520000000     0.054390000000     0.757280000000     0.0118622  
C413     C      0.176210000000     0.149120000000     0.708900000000    -0.0206366  
C414     C      0.121620000000     0.103520000000     0.772960000000    -0.00714826 
C415     C      0.156170000000     0.100860000000     0.240880000000     0.0149489  
C416     C      0.158010000000     0.048950000000     0.302680000000    -0.0423733  
C417     C      0.141220000000     0.064910000000     0.376080000000    -0.0205017  
C418     C      0.140860000000     0.073820000000     0.328450000000     0.0103519  
C419     C      0.091530000000     0.114030000000     0.379140000000    -0.0210447  
C420     C      0.111110000000     0.135480000000     0.335290000000     0.00996268 
C421     C      0.164590000000     0.061570000000     0.259180000000    -0.0431247  
C422     C      0.130690000000     0.112100000000     0.310380000000    -0.0047392  
C423     C      0.105030000000     0.176640000000     0.317570000000    -0.0431056  
C424     C      0.117670000000     0.194110000000     0.275500000000    -0.0434717  
C425     C      0.148250000000     0.188110000000     0.204200000000    -0.0218916  
C426     C      0.134530000000     0.169210000000     0.249620000000     0.0142936  
C427     C      0.164330000000     0.114590000000     0.193830000000    -0.0216461  
C428     C      0.140590000000     0.127530000000     0.266800000000    -0.00632097 
C429     C      0.863610000000     0.877960000000     0.030220000000     0.0128225  
C430     C      0.843150000000     0.789710000000     0.051410000000    -0.0458756  
C431     C      0.797910000000     0.745700000000     0.119420000000    -0.0213011  
C432     C      0.817550000000     0.790440000000     0.086760000000     0.006798   
C433     C      0.762650000000     0.790300000000     0.159180000000    -0.0187945  
C434     C      0.785700000000     0.835780000000     0.127270000000     0.0122916  
C435     C      0.865670000000     0.832720000000     0.023410000000    -0.0443192  
C436     C      0.813420000000     0.835010000000     0.093200000000    -0.00365187 
C437     C      0.781860000000     0.880420000000     0.132830000000    -0.0398652  
C438     C      0.806130000000     0.924390000000     0.105770000000    -0.0439562  
C439     C      0.862480000000     0.973430000000     0.044440000000    -0.0216245  
C440     C      0.835100000000     0.924910000000     0.072670000000     0.0174545  
C441     C      0.889190000000     0.924870000000     0.000250000000    -0.0198362  
C442     C      0.837160000000     0.879320000000     0.065090000000    -0.00804773 
C443     C      0.216060000000     0.330420000000     0.119740000000     0.0148168  
C444     C      0.297340000000     0.353480000000     0.155720000000    -0.0436734  
C445     C      0.378370000000     0.393590000000     0.116700000000    -0.0249878  
C446     C      0.322230000000     0.373770000000     0.117290000000     0.0152181  
C447     C      0.375290000000     0.417430000000     0.037970000000    -0.0247136  
C448     C      0.318270000000     0.392640000000     0.040600000000     0.0138568  
C449     C      0.244990000000     0.332760000000     0.157060000000    -0.0409446  
C450     C      0.293890000000     0.371970000000     0.079440000000    -0.00662065 
C451     C      0.288880000000     0.388960000000     0.003080000000    -0.0439771  
C452     C      0.236160000000     0.365980000000     0.003940000000    -0.0440288  
C453     C      0.154580000000     0.322730000000     0.042890000000    -0.0199283  
C454     C      0.211450000000     0.345750000000     0.042320000000     0.00935616 
C455     C      0.159490000000     0.308850000000     0.121680000000    -0.0187722  
C456     C      0.240300000000     0.349460000000     0.080530000000    -0.00155339 
C457     C      0.899750000000     0.136260000000     0.182040000000     0.0207509  
C458     C      0.852870000000     0.180710000000     0.162290000000    -0.0417398  
C459     C      0.757640000000     0.132740000000     0.154150000000    -0.0203855  
C460     C      0.806780000000     0.132810000000     0.162950000000     0.0123133  
C461     C      0.710320000000     0.034860000000     0.167640000000    -0.0212155  
C462     C      0.760970000000     0.037600000000     0.175850000000     0.0109641  
C463     C      0.898910000000     0.182460000000     0.171880000000    -0.0424326  
C464     C      0.806970000000     0.085950000000     0.173790000000    -0.00398904 
C465     C      0.762250000000     0.991830000000     0.187810000000    -0.0427245  
C466     C      0.808560000000     0.993290000000     0.195600000000    -0.0458831  
C467     C      0.904690000000     0.040590000000     0.197730000000    -0.0269875  
C468     C      0.854710000000     0.040440000000     0.191580000000     0.0142316  
C469     C      0.949060000000     0.138360000000     0.194280000000    -0.0240525  
C470     C      0.853960000000     0.087540000000     0.182480000000    -0.00845604 
C471     C      0.276290000000     0.091440000000     0.017500000000     0.00953646 
C472     C      0.335800000000     0.068140000000     0.992940000000    -0.0443797  
C473     C      0.429220000000     0.122200000000     0.011670000000    -0.0220085  
C474     C      0.375530000000     0.108520000000     0.017000000000     0.0109833  
C475     C      0.456100000000     0.182290000000     0.075800000000    -0.0213993  
C476     C      0.404550000000     0.178030000000     0.069000000000     0.00948103 
C477     C      0.286370000000     0.058700000000     0.994220000000    -0.0429577  
C478     C      0.365630000000     0.139890000000     0.042270000000    -0.00703533 
C479     C      0.394770000000     0.211760000000     0.091190000000    -0.0437057  
C480     C      0.347050000000     0.207570000000     0.087150000000    -0.0436476  
C481     C      0.256960000000     0.166350000000     0.057670000000    -0.0207141  
C482     C      0.307460000000     0.168450000000     0.061920000000     0.0100445  
C483     C      0.222450000000     0.079200000000     0.019860000000    -0.0181033  
C484     C      0.316140000000     0.133170000000     0.040610000000    -0.00566892 
C485     C      0.094520000000     0.906220000000     0.070250000000     0.010737   
C486     C      0.130580000000     0.875550000000     0.019860000000    -0.0440803  
C487     C      0.078280000000     0.788180000000     0.983480000000    -0.0200856  
C488     C      0.084000000000     0.828540000000     0.014770000000     0.0112022  
C489     C      0.988450000000     0.730500000000     0.004300000000    -0.0222156  
C490     C      0.995120000000     0.772780000000     0.033820000000     0.0123215  
C491     C      0.136000000000     0.913640000000     0.047780000000    -0.0442156  
C492     C      0.041960000000     0.820320000000     0.037580000000    -0.00739981 
C493     C      0.953830000000     0.765700000000     0.056350000000    -0.0453899  
C494     C      0.958620000000     0.804810000000     0.082800000000    -0.0436849  
C495     C      0.007930000000     0.895460000000     0.114150000000    -0.0254019  
C496     C      0.004430000000     0.852640000000     0.086510000000     0.0108025  
C497     C      0.100860000000     0.946440000000     0.101440000000    -0.0212336  
C498     C      0.047010000000     0.859850000000     0.064910000000    -0.00816363 
C499     C      0.938240000000     0.216030000000     0.007480000000     0.0180404  
C500     C      0.910600000000     0.261530000000     0.051590000000    -0.0403754  
C501     C      0.961440000000     0.359910000000     0.060700000000    -0.0227593  
C502     C      0.955190000000     0.309510000000     0.043970000000     0.0112855  
C503     C      0.055130000000     0.399070000000     0.046200000000    -0.0188093  
C504     C      0.039520000000     0.356190000000     0.014850000000     0.00908493 
C505     C      0.902850000000     0.215020000000     0.034480000000    -0.042644   
C506     C      0.991990000000     0.310410000000     0.018520000000    -0.00262315 
C507     C      0.073660000000     0.358790000000     0.985590000000    -0.0442949  
C508     C      0.061450000000     0.315200000000     0.961360000000    -0.0448372  
C509     C      0.004740000000     0.218690000000     0.945620000000    -0.0217783  
C510     C      0.016470000000     0.267610000000     0.968160000000     0.0165522  
C511     C      0.931190000000     0.165480000000     0.990290000000    -0.022753   
C512     C      0.981790000000     0.264680000000     0.997500000000    -0.00621827 
Co1      Co     0.033170000000     0.130830000000     0.082240000000     0.805886   
Co2      Co     0.063900000000     0.046660000000     0.012510000000     1.14419    
Co3      Co     0.116010000000     0.174860000000     0.013330000000     1.16059    
Co4      Co     0.026040000000     0.068650000000     0.094660000000     0.75902    
Co5      Co     0.138100000000     0.037600000000     0.518710000000     1.07597    
Co6      Co     0.041880000000     0.032520000000     0.600930000000     1.09199    
Co7      Co     0.023850000000     0.011960000000     0.499290000000     1.06414    
Co8      Co     0.138080000000     0.132220000000     0.561130000000     1.09442    
Co9      Co     0.080690000000     0.536940000000     0.005520000000     1.08688    
Co10     Co     0.045090000000     0.633260000000     0.075080000000     0.980231   
Co11     Co     0.996140000000     0.536000000000     0.048110000000     1.0684     
Co12     Co     0.124350000000     0.659710000000     0.997970000000     1.11198    
Co13     Co     0.093320000000     0.489360000000     0.508140000000     1.12804    
Co14     Co     0.080130000000     0.622940000000     0.547290000000     0.920152   
Co15     Co     0.037200000000     0.528130000000     0.561100000000     1.0196     
Co16     Co     0.166690000000     0.621560000000     0.496060000000     1.21956    
Co17     Co     0.568850000000     0.119540000000     0.113230000000     1.09941    
Co18     Co     0.645680000000     0.094930000000     0.036350000000     1.11389    
Co19     Co     0.579550000000     0.149130000000     0.015580000000     1.14903    
Co20     Co     0.576630000000     0.022310000000     0.077300000000     0.903853   
Co21     Co     0.501790000000     0.060550000000     0.591640000000     1.06752    
Co22     Co     0.584080000000     0.060600000000     0.499750000000     1.11385    
Co23     Co     0.562160000000     0.148310000000     0.526410000000     1.08458    
Co24     Co     0.576050000000     0.037300000000     0.608110000000     1.04407    
Co25     Co     0.552750000000     0.537700000000     0.041130000000     0.868124   
Co26     Co     0.595310000000     0.657080000000     0.135850000000     1.09229    
Co27     Co     0.535210000000     0.539180000000     0.110920000000     1.03461    
Co28     Co     0.660330000000     0.644780000000     0.064240000000     1.1291     
Co29     Co     0.561830000000     0.477810000000     0.591930000000     1.0774     
Co30     Co     0.593190000000     0.608700000000     0.647780000000     1.09786    
Co31     Co     0.483980000000     0.503320000000     0.632090000000     1.07184    
Co32     Co     0.590580000000     0.587330000000     0.547270000000     1.05338    
H1       H      0.469590000000     0.498730000000     0.760740000000     0.0450066  
H2       H      0.619770000000     0.710420000000     0.911940000000     0.0350589  
H3       H      0.598730000000     0.511100000000     0.793160000000     0.0384869  
H4       H      0.495250000000     0.602580000000     0.952320000000     0.0475093  
H5       H      0.695140000000     0.677210000000     0.879230000000     0.036306   
H6       H      0.685800000000     0.623010000000     0.818810000000     0.0369901  
H7       H      0.631680000000     0.568050000000     0.759530000000     0.050476   
H8       H      0.657800000000     0.688990000000     0.941900000000     0.0430496  
H9       H      0.429800000000     0.500330000000     0.827340000000     0.0355405  
H10      H      0.496430000000     0.464940000000     0.791400000000     0.0373343  
H11      H      0.439200000000     0.551020000000     0.890320000000     0.0369041  
H12      H      0.523270000000     0.660580000000     0.919430000000     0.0346185  
H13      H      0.598060000000     0.487940000000     0.456830000000     0.0445064  
H14      H      0.479790000000     0.543610000000     0.240550000000     0.0468632  
H15      H      0.450570000000     0.442740000000     0.441110000000     0.0383644  
H16      H      0.632180000000     0.577100000000     0.253330000000     0.0478976  
H17      H      0.422910000000     0.503500000000     0.300760000000     0.0380585  
H18      H      0.413850000000     0.484200000000     0.377840000000     0.0378024  
H19      H      0.471830000000     0.510490000000     0.450660000000     0.0516044  
H20      H      0.489520000000     0.488720000000     0.240840000000     0.0526811  
H21      H      0.650430000000     0.518750000000     0.394230000000     0.0357509  
H22      H      0.542390000000     0.432790000000     0.432960000000     0.0381453  
H23      H      0.667070000000     0.562170000000     0.323280000000     0.0381346  
H24      H      0.617700000000     0.621830000000     0.277310000000     0.0452531  
H25      H      0.585960000000     0.733720000000     0.628780000000     0.04399    
H26      H      0.456910000000     0.858850000000     0.485030000000     0.0382797  
H27      H      0.584230000000     0.721670000000     0.498950000000     0.0387654  
H28      H      0.491180000000     0.892320000000     0.604750000000     0.0458556  
H29      H      0.505730000000     0.818180000000     0.436000000000     0.0364918  
H30      H      0.528980000000     0.749880000000     0.446060000000     0.0377431  
H31      H      0.518420000000     0.676530000000     0.509400000000     0.0523427  
H32      H      0.520740000000     0.904310000000     0.471260000000     0.0446512  
H33      H      0.565210000000     0.793570000000     0.658380000000     0.0367664  
H34      H      0.628190000000     0.777730000000     0.589190000000     0.0438685  
H35      H      0.522290000000     0.844850000000     0.650370000000     0.0349092  
H36      H      0.444720000000     0.842040000000     0.570740000000     0.039117   
H37      H      0.600730000000     0.447340000000     0.717320000000     0.0534292  
H38      H      0.442160000000     0.166400000000     0.617520000000     0.0502651  
H39      H      0.468520000000     0.355730000000     0.750200000000     0.0353995  
H40      H      0.596840000000     0.232810000000     0.650310000000     0.0484217  
H41      H      0.393980000000     0.191440000000     0.662370000000     0.0360602  
H42      H      0.391520000000     0.264830000000     0.692860000000     0.03678    
H43      H      0.438260000000     0.363230000000     0.701520000000     0.0454317  
H44      H      0.467760000000     0.156010000000     0.667490000000     0.0467111  
H45      H      0.648840000000     0.403270000000     0.703640000000     0.0399038  
H46      H      0.563410000000     0.401740000000     0.757930000000     0.0361314  
H47      H      0.650240000000     0.333470000000     0.666010000000     0.035463   
H48      H      0.590610000000     0.266860000000     0.603290000000     0.0421905  
H49      H      0.590970000000     0.198770000000     0.722840000000     0.0384869  
H50      H      0.631120000000     0.058000000000     0.911650000000     0.0520682  
H51      H      0.667640000000     0.132300000000     0.706020000000     0.0504973  
H52      H      0.490420000000     0.018590000000     0.886710000000     0.0381243  
H53      H      0.677200000000     0.071500000000     0.846750000000     0.0371918  
H54      H      0.698640000000     0.112470000000     0.775500000000     0.0372571  
H55      H      0.673240000000     0.190480000000     0.726620000000     0.0391868  
H56      H      0.573330000000     0.006570000000     0.887810000000     0.0363429  
H57      H      0.488580000000     0.135120000000     0.765530000000     0.0385715  
H58      H      0.533740000000     0.145630000000     0.699850000000     0.0533146  
H59      H      0.468090000000     0.095760000000     0.837360000000     0.0361944  
H60      H      0.501880000000     0.079480000000     0.907010000000     0.0477182  
H61      H      0.515660000000     0.147510000000     0.362100000000     0.0369254  
H62      H      0.510460000000     0.973180000000     0.206660000000     0.0461782  
H63      H      0.471470000000     0.008060000000     0.407670000000     0.0509296  
H64      H      0.648050000000     0.071580000000     0.246220000000     0.0381796  
H65      H      0.467490000000     0.930470000000     0.277450000000     0.036896   
H66      H      0.441040000000     0.949120000000     0.343370000000     0.036963   
H67      H      0.446650000000     0.043650000000     0.377110000000     0.0377024  
H68      H      0.562470000000     0.971650000000     0.235140000000     0.0387212  
H69      H      0.626740000000     0.203330000000     0.327740000000     0.0364191  
H70      H      0.576060000000     0.172460000000     0.391020000000     0.0448916  
H71      H      0.660010000000     0.181990000000     0.267620000000     0.0375427  
H72      H      0.648430000000     0.122130000000     0.212350000000     0.0511245  
H73      H      0.562640000000     0.952710000000     0.963260000000     0.0518487  
H74      H      0.706150000000     0.796730000000     0.026680000000     0.0472927  
H75      H      0.697790000000     0.003670000000     0.932170000000     0.0375448  
H76      H      0.557550000000     0.722880000000     0.995730000000     0.0380606  
H77      H      0.756820000000     0.883190000000     0.994010000000     0.0379176  
H78      H      0.765250000000     0.968920000000     0.976010000000     0.0369623  
H79      H      0.724390000000     0.024740000000     0.985400000000     0.0529024  
H80      H      0.666680000000     0.770680000000     0.978840000000     0.0377842  
H81      H      0.509550000000     0.857910000000     0.974600000000     0.0379052  
H82      H      0.599590000000     0.950930000000     0.922150000000     0.0352215  
H83      H      0.502070000000     0.775150000000     0.001490000000     0.0370923  
H84      H      0.551330000000     0.740540000000     0.048380000000     0.0485419  
H85      H      0.622630000000     0.461670000000     0.172500000000     0.052208   
H86      H      0.727770000000     0.339600000000     0.069220000000     0.0377872  
H87      H      0.520170000000     0.356070000000     0.097500000000     0.0379829  
H88      H      0.669440000000     0.260770000000     0.167480000000     0.047592   
H89      H      0.634680000000     0.332550000000     0.000430000000     0.0338512  
H90      H      0.577260000000     0.366500000000     0.009030000000     0.0373395  
H91      H      0.540990000000     0.401210000000     0.053340000000     0.0497041  
H92      H      0.682180000000     0.292720000000     0.032350000000     0.0449115  
H93      H      0.637990000000     0.390330000000     0.221340000000     0.0380609  
H94      H      0.561520000000     0.403290000000     0.179510000000     0.0428358  
H95      H      0.675870000000     0.334680000000     0.215240000000     0.0365857  
H96      H      0.727600000000     0.314280000000     0.148050000000     0.0392607  
H97      H      0.729390000000     0.180680000000     0.461190000000     0.0403593  
H98      H      0.912460000000     0.488220000000     0.484800000000     0.0554695  
H99      H      0.676720000000     0.279620000000     0.479340000000     0.0355554  
H100     H      0.939160000000     0.408270000000     0.406200000000     0.0353842  
H101     H      0.823330000000     0.453130000000     0.497560000000     0.0436022  
H102     H      0.740610000000     0.376590000000     0.512270000000     0.037534   
H103     H      0.701630000000     0.276980000000     0.532710000000     0.0510748  
H104     H      0.901740000000     0.470310000000     0.429870000000     0.0389319  
H105     H      0.812100000000     0.219500000000     0.427830000000     0.0349624  
H106     H      0.709700000000     0.216090000000     0.423970000000     0.0402721  
H107     H      0.898260000000     0.294510000000     0.421130000000     0.0369476  
H108     H      0.962690000000     0.383740000000     0.449990000000     0.0475191  
H109     H      0.380040000000     0.947090000000     0.717070000000     0.0381243  
H110     H      0.249070000000     0.693190000000     0.631860000000     0.0428973  
H111     H      0.472600000000     0.916650000000     0.669570000000     0.0429868  
H112     H      0.195440000000     0.782980000000     0.575050000000     0.0456694  
H113     H      0.358430000000     0.741290000000     0.628450000000     0.037875   
H114     H      0.430480000000     0.819340000000     0.660650000000     0.0344708  
H115     H      0.436630000000     0.905400000000     0.715750000000     0.0378298  
H116     H      0.279280000000     0.708220000000     0.582040000000     0.0497195  
H117     H      0.286070000000     0.932220000000     0.663160000000     0.0386731  
H118     H      0.380020000000     0.987510000000     0.672740000000     0.0564815  
H119     H      0.214570000000     0.855100000000     0.628960000000     0.0358992  
H120     H      0.180520000000     0.748220000000     0.625620000000     0.04052    
H121     H      0.665470000000     0.462380000000     0.602250000000     0.044027   
H122     H      0.933880000000     0.615780000000     0.585620000000     0.042655   
H123     H      0.697760000000     0.512430000000     0.486170000000     0.0355101  
H124     H      0.882730000000     0.461640000000     0.598100000000     0.0549986  
H125     H      0.891120000000     0.636870000000     0.500880000000     0.0380894  
H126     H      0.804740000000     0.617970000000     0.480550000000     0.0345865  
H127     H      0.716130000000     0.577780000000     0.500960000000     0.0376881  
H128     H      0.946020000000     0.605820000000     0.532740000000     0.0532311  
H129     H      0.711300000000     0.413170000000     0.620900000000     0.0357614  
H130     H      0.658660000000     0.437680000000     0.549570000000     0.0306465  
H131     H      0.796360000000     0.425190000000     0.634260000000     0.0389752  
H132     H      0.895550000000     0.509800000000     0.637560000000     0.0447321  
H133     H      0.442860000000     0.664380000000     0.676190000000     0.037807   
H134     H      0.213340000000     0.472390000000     0.551020000000     0.0456068  
H135     H      0.413490000000     0.523770000000     0.683200000000     0.0276275  
H136     H      0.312290000000     0.585580000000     0.482600000000     0.0362163  
H137     H      0.260790000000     0.438120000000     0.597420000000     0.0339539  
H138     H      0.326290000000     0.460960000000     0.655170000000     0.0329102  
H139     H      0.394570000000     0.567130000000     0.702460000000     0.0355681  
H140     H      0.257260000000     0.484050000000     0.510960000000     0.0359362  
H141     H      0.442850000000     0.714850000000     0.588290000000     0.0426401  
H142     H      0.489900000000     0.682150000000     0.637360000000     0.0392459  
H143     H      0.378220000000     0.691970000000     0.529920000000     0.0376107  
H144     H      0.293920000000     0.629920000000     0.500190000000     0.0435797  
H145     H      0.031430000000     0.614700000000     0.853180000000     0.0413667  
H146     H      0.103920000000     0.514380000000     0.678370000000     0.0531622  
H147     H      0.080290000000     0.518250000000     0.887090000000     0.0443641  
H148     H      0.189140000000     0.663950000000     0.689890000000     0.0385221  
H149     H      0.098640000000     0.472910000000     0.750200000000     0.0364839  
H150     H      0.072400000000     0.467140000000     0.823350000000     0.0354166  
H151     H      0.022810000000     0.515370000000     0.865550000000     0.0377703  
H152     H      0.167670000000     0.562790000000     0.693360000000     0.0386726  
H153     H      0.106420000000     0.711450000000     0.801330000000     0.0369588  
H154     H      0.092220000000     0.668010000000     0.871750000000     0.0467613  
H155     H      0.138230000000     0.719580000000     0.730040000000     0.0375205  
H156     H      0.139150000000     0.674450000000     0.667660000000     0.0481178  
H157     H      0.073130000000     0.463280000000     0.376150000000     0.0435473  
H158     H      0.159210000000     0.575900000000     0.168000000000     0.0387898  
H159     H      0.098600000000     0.609690000000     0.363420000000     0.0413271  
H160     H      0.018480000000     0.471220000000     0.166600000000     0.0514761  
H161     H      0.189950000000     0.670840000000     0.228580000000     0.0373329  
H162     H      0.187030000000     0.673840000000     0.306060000000     0.0355538  
H163     H      0.164000000000     0.626520000000     0.373210000000     0.0449797  
H164     H      0.146140000000     0.628250000000     0.162620000000     0.0500272  
H165     H      0.010760000000     0.415470000000     0.311150000000     0.0355379  
H166     H      0.030550000000     0.489010000000     0.373490000000     0.0396162  
H167     H      0.006760000000     0.414560000000     0.232780000000     0.0377568  
H168     H      0.080360000000     0.477760000000     0.164880000000     0.0449286  
H169     H      0.892510000000     0.510130000000     0.948390000000     0.0551189  
H170     H      0.788290000000     0.227230000000     0.002910000000     0.0529014  
H171     H      0.935500000000     0.439760000000     0.878830000000     0.0352464  
H172     H      0.706340000000     0.258740000000     0.915650000000     0.0405472  
H173     H      0.871470000000     0.261170000000     0.955630000000     0.0401035  
H174     H      0.942550000000     0.345250000000     0.931670000000     0.0406998  
H175     H      0.980110000000     0.439610000000     0.918570000000     0.0444287  
H176     H      0.769280000000     0.205600000000     0.949040000000     0.043325   
H177     H      0.794890000000     0.454760000000     0.934870000000     0.0394537  
H178     H      0.890990000000     0.493710000000     0.893830000000     0.037553   
H179     H      0.720270000000     0.367180000000     0.943960000000     0.0331552  
H180     H      0.684640000000     0.275040000000     0.961170000000     0.0401096  
H181     H      0.408470000000     0.005280000000     0.122520000000     0.0470093  
H182     H      0.251510000000     0.742120000000     0.139000000000     0.0359599  
H183     H      0.396060000000     0.947590000000     0.010030000000     0.0420497  
H184     H      0.166710000000     0.799580000000     0.102690000000     0.0448635  
H185     H      0.323240000000     0.755710000000     0.061320000000     0.0399984  
H186     H      0.394230000000     0.836700000000     0.032900000000     0.0372955  
H187     H      0.442250000000     0.930110000000     0.028870000000     0.0504206  
H188     H      0.239440000000     0.709930000000     0.089490000000     0.0481623  
H189     H      0.307120000000     0.976980000000     0.122540000000     0.038139   
H190     H      0.388440000000     0.018130000000     0.070200000000     0.0430757  
H191     H      0.225390000000     0.895960000000     0.133540000000     0.0369657  
H192     H      0.192480000000     0.787010000000     0.152370000000     0.0389204  
H193     H      0.762270000000     0.626320000000     0.979160000000     0.0317227  
H194     H      0.842060000000     0.446310000000     0.070300000000     0.0583825  
H195     H      0.653270000000     0.485740000000     0.991750000000     0.0414656  
H196     H      0.866360000000     0.552510000000     0.148510000000     0.0397954  
H197     H      0.761170000000     0.414350000000     0.028280000000     0.0401009  
H198     H      0.700390000000     0.433140000000     0.987870000000     0.0356044  
H199     H      0.700590000000     0.527690000000     0.954630000000     0.0378702  
H200     H      0.819020000000     0.456990000000     0.117240000000     0.0413253  
H201     H      0.823740000000     0.677250000000     0.065700000000     0.0316515  
H202     H      0.743660000000     0.647850000000     0.023300000000     0.0167482  
H203     H      0.880000000000     0.657140000000     0.110650000000     0.0378874  
H204     H      0.919290000000     0.602470000000     0.120450000000     0.0463958  
H205     H      0.442270000000     0.630180000000     0.157660000000     0.0446265  
H206     H      0.259070000000     0.639260000000     0.968690000000     0.0420977  
H207     H      0.477550000000     0.644590000000     0.031230000000     0.0434675  
H208     H      0.223810000000     0.623320000000     0.098060000000     0.0410271  
H209     H      0.339160000000     0.646930000000     0.949100000000     0.0367243  
H210     H      0.411170000000     0.633500000000     0.968830000000     0.0352102  
H211     H      0.429540000000     0.576410000000     0.036360000000     0.056472   
H212     H      0.286990000000     0.692030000000     0.005800000000     0.0402119  
H213     H      0.366800000000     0.631020000000     0.177260000000     0.037824   
H214     H      0.467570000000     0.687150000000     0.122460000000     0.0412351  
H215     H      0.281480000000     0.616110000000     0.156490000000     0.036188   
H216     H      0.215470000000     0.562470000000     0.080260000000     0.0505339  
H217     H      0.758460000000     0.628880000000     0.562550000000     0.0435621  
H218     H      0.995740000000     0.843080000000     0.620120000000     0.0435244  
H219     H      0.747500000000     0.681760000000     0.668770000000     0.0429588  
H220     H      0.946890000000     0.867240000000     0.508400000000     0.0455099  
H221     H      0.921910000000     0.808940000000     0.692250000000     0.0363054  
H222     H      0.837000000000     0.732860000000     0.702310000000     0.0367714  
H223     H      0.767650000000     0.638370000000     0.650690000000     0.0462048  
H224     H      0.976030000000     0.883610000000     0.643650000000     0.0432545  
H225     H      0.797260000000     0.706500000000     0.487820000000     0.0352386  
H226     H      0.726370000000     0.659160000000     0.534100000000     0.0459182  
H227     H      0.880940000000     0.783620000000     0.477670000000     0.0348409  
H228     H      0.977110000000     0.832610000000     0.532180000000     0.0409952  
H229     H      0.365820000000     0.424500000000     0.544490000000     0.0472441  
H230     H      0.259120000000     0.146830000000     0.450220000000     0.0446557  
H231     H      0.461400000000     0.386290000000     0.493490000000     0.0412181  
H232     H      0.205260000000     0.230850000000     0.408300000000     0.0381376  
H233     H      0.354120000000     0.203560000000     0.450510000000     0.0365284  
H234     H      0.427460000000     0.280280000000     0.483390000000     0.0344512  
H235     H      0.446880000000     0.346660000000     0.541650000000     0.0470872  
H236     H      0.255530000000     0.183950000000     0.404930000000     0.0360785  
H237     H      0.283580000000     0.391490000000     0.502740000000     0.0359482  
H238     H      0.394690000000     0.440560000000     0.493540000000     0.0428888  
H239     H      0.209960000000     0.314310000000     0.470680000000     0.0373427  
H240     H      0.168500000000     0.220140000000     0.453730000000     0.0502684  
H241     H      0.721430000000     0.093930000000     0.492110000000     0.0466453  
H242     H      0.868750000000     0.978440000000     0.576830000000     0.044536   
H243     H      0.761300000000     0.124860000000     0.613200000000     0.041488   
H244     H      0.940810000000     0.096540000000     0.490930000000     0.049858   
H245     H      0.846980000000     0.019370000000     0.652860000000     0.0364386  
H246     H      0.783920000000     0.045440000000     0.661370000000     0.0364831  
H247     H      0.716490000000     0.056980000000     0.625290000000     0.0454072  
H248     H      0.915630000000     0.027930000000     0.611700000000     0.0439106  
H249     H      0.800190000000     0.121250000000     0.453170000000     0.0351484  
H250     H      0.761690000000     0.150290000000     0.524470000000     0.0402124  
H251     H      0.868400000000     0.101990000000     0.446290000000     0.037365   
H252     H      0.893030000000     0.028970000000     0.481580000000     0.0385897  
H253     H      0.432080000000     0.125180000000     0.469310000000     0.0440419  
H254     H      0.264440000000     0.050590000000     0.656760000000     0.0364851  
H255     H      0.337050000000     0.981590000000     0.479220000000     0.0351206  
H256     H      0.289420000000     0.171890000000     0.593830000000     0.0480292  
H257     H      0.232350000000     0.948020000000     0.606130000000     0.0378002  
H258     H      0.281880000000     0.929940000000     0.558090000000     0.040906   
H259     H      0.368940000000     0.970080000000     0.524800000000     0.0544728  
H260     H      0.205270000000     0.008520000000     0.629460000000     0.0522596  
H261     H      0.413020000000     0.186920000000     0.501580000000     0.0357093  
H262     H      0.369840000000     0.075130000000     0.452400000000     0.0340479  
H263     H      0.369210000000     0.206440000000     0.554560000000     0.0414367  
H264     H      0.313070000000     0.146980000000     0.636930000000     0.0352736  
H265     H      0.166350000000     0.735830000000     0.423590000000     0.0444116  
H266     H      0.993830000000     0.862060000000     0.455040000000     0.0365749  
H267     H      0.026330000000     0.668540000000     0.386880000000     0.0369847  
H268     H      0.150300000000     0.945240000000     0.474480000000     0.0278116  
H269     H      0.950460000000     0.770590000000     0.433790000000     0.0346223  
H270     H      0.952250000000     0.689810000000     0.422660000000     0.0364623  
H271     H      0.005010000000     0.643750000000     0.439400000000     0.0506811  
H272     H      0.042550000000     0.890130000000     0.417000000000     0.0430447  
H273     H      0.209130000000     0.828140000000     0.443310000000     0.0378233  
H274     H      0.124290000000     0.734190000000     0.380390000000     0.0356238  
H275     H      0.204590000000     0.900680000000     0.473570000000     0.0355949  
H276     H      0.129350000000     0.903420000000     0.521560000000     0.0454876  
H277     H      0.125160000000     0.449900000000     0.632760000000     0.0507849  
H278     H      0.972950000000     0.142450000000     0.594250000000     0.043127   
H279     H      0.986300000000     0.366930000000     0.662080000000     0.0426805  
H280     H      0.129860000000     0.238570000000     0.578340000000     0.0325992  
H281     H      0.922360000000     0.180770000000     0.622760000000     0.0402742  
H282     H      0.917370000000     0.260690000000     0.629350000000     0.0395455  
H283     H      0.963900000000     0.361140000000     0.606840000000     0.0519725  
H284     H      0.005620000000     0.156690000000     0.645720000000     0.0446715  
H285     H      0.173060000000     0.406980000000     0.620210000000     0.0383512  
H286     H      0.086270000000     0.410100000000     0.675060000000     0.0357916  
H287     H      0.173760000000     0.330810000000     0.593250000000     0.0343316  
H288     H      0.080900000000     0.237640000000     0.542140000000     0.0462686  
H289     H      0.027900000000     0.024880000000     0.890390000000     0.0427305  
H290     H      0.216200000000     0.158590000000     0.715290000000     0.0368465  
H291     H      0.064340000000     0.170070000000     0.862050000000     0.0350104  
H292     H      0.111850000000     0.013520000000     0.703020000000     0.0500293  
H293     H      0.192770000000     0.235090000000     0.751170000000     0.0364094  
H294     H      0.158270000000     0.239010000000     0.818360000000     0.0351966  
H295     H      0.125520000000     0.191070000000     0.888440000000     0.0429996  
H296     H      0.177560000000     0.180470000000     0.686880000000     0.0462504  
H297     H      0.024950000000     0.974090000000     0.830340000000     0.0356054  
H298     H      0.002290000000     0.059460000000     0.858910000000     0.038455   
H299     H      0.065840000000     0.970260000000     0.767080000000     0.0371502  
H300     H      0.171950000000     0.054080000000     0.730220000000     0.038729   
H301     H      0.049290000000     0.094190000000     0.376620000000     0.0465216  
H302     H      0.151750000000     0.078550000000     0.175250000000     0.0524846  
H303     H      0.180620000000     0.090170000000     0.389470000000     0.0414446  
H304     H      0.189280000000     0.218410000000     0.203910000000     0.0383037  
H305     H      0.177370000000     0.041410000000     0.239920000000     0.0376722  
H306     H      0.166920000000     0.020020000000     0.316440000000     0.0364438  
H307     H      0.130340000000     0.023190000000     0.382580000000     0.0445425  
H308     H      0.205840000000     0.139920000000     0.189530000000     0.0377208  
H309     H      0.089990000000     0.195060000000     0.336350000000     0.0370152  
H310     H      0.105730000000     0.147510000000     0.401180000000     0.0490416  
H311     H      0.113170000000     0.226380000000     0.262820000000     0.0371151  
H312     H      0.126190000000     0.206690000000     0.191360000000     0.0495738  
H313     H      0.727050000000     0.785900000000     0.170870000000     0.0456321  
H314     H      0.861320000000     0.920710000000     0.973780000000     0.0349741  
H315     H      0.828810000000     0.753760000000     0.144060000000     0.0376733  
H316     H      0.876170000000     0.009380000000     0.063410000000     0.0570397  
H317     H      0.885530000000     0.830970000000     0.996690000000     0.0368002  
H318     H      0.846830000000     0.756300000000     0.045540000000     0.032245   
H319     H      0.787890000000     0.708610000000     0.104020000000     0.0403711  
H320     H      0.921650000000     0.925940000000     0.985080000000     0.0449211  
H321     H      0.760270000000     0.881310000000     0.158520000000     0.0363018  
H322     H      0.789680000000     0.799720000000     0.187430000000     0.0372396  
H323     H      0.802760000000     0.958440000000     0.110860000000     0.0443873  
H324     H      0.835090000000     0.973370000000     0.019310000000     0.0370556  
H325     H      0.389220000000     0.453670000000     0.017650000000     0.0503805  
H326     H      0.153470000000     0.341640000000     0.129100000000     0.0386378  
H327     H      0.384100000000     0.359560000000     0.114310000000     0.0401872  
H328     H      0.135630000000     0.301740000000     0.012610000000     0.0305625  
H329     H      0.226950000000     0.318300000000     0.187310000000     0.0354562  
H330     H      0.318670000000     0.353910000000     0.184940000000     0.0380031  
H331     H      0.396290000000     0.412860000000     0.147780000000     0.0562234  
H332     H      0.142930000000     0.279210000000     0.147960000000     0.0408007  
H333     H      0.306960000000     0.404170000000     0.972920000000     0.0366144  
H334     H      0.383390000000     0.389800000000     0.022120000000     0.0398066  
H335     H      0.214520000000     0.364080000000     0.974530000000     0.0333425  
H336     H      0.146890000000     0.355450000000     0.045060000000     0.0390336  
H337     H      0.694540000000     0.034350000000     0.198760000000     0.0388185  
H338     H      0.954610000000     0.140480000000     0.229740000000     0.0385772  
H339     H      0.763600000000     0.162710000000     0.128690000000     0.0580631  
H340     H      0.901250000000     0.006160000000     0.181550000000     0.0528777  
H341     H      0.933940000000     0.220030000000     0.171640000000     0.0418403  
H342     H      0.853130000000     0.217010000000     0.154670000000     0.0378471  
H343     H      0.747680000000     0.144450000000     0.183560000000     0.041035   
H344     H      0.982170000000     0.174480000000     0.181480000000     0.0547823  
H345     H      0.727160000000     0.954650000000     0.190690000000     0.0367322  
H346     H      0.683610000000     0.997440000000     0.151270000000     0.0495435  
H347     H      0.808480000000     0.957350000000     0.204340000000     0.0373299  
H348     H      0.912880000000     0.037090000000     0.232470000000     0.0419798  
H349     H      0.462410000000     0.176630000000     0.110600000000     0.0451878  
H350     H      0.204750000000     0.050330000000     0.046450000000     0.040675   
H351     H      0.445360000000     0.151800000000     0.985290000000     0.03581    
H352     H      0.264220000000     0.205860000000     0.046660000000     0.0511035  
H353     H      0.255970000000     0.026210000000     0.976450000000     0.0358231  
H354     H      0.343060000000     0.043790000000     0.973180000000     0.0371019  
H355     H      0.428860000000     0.086120000000     0.002320000000     0.0500796  
H356     H      0.200860000000     0.060220000000     0.989610000000     0.0440546  
H357     H      0.424330000000     0.241610000000     0.111620000000     0.0368317  
H358     H      0.485940000000     0.222480000000     0.066090000000     0.0392123  
H359     H      0.340810000000     0.234810000000     0.104010000000     0.037795   
H360     H      0.240850000000     0.158060000000     0.089890000000     0.0457239  
H361     H      0.971380000000     0.735120000000     0.973100000000     0.0375762  
H362     H      0.133420000000     0.985970000000     0.093790000000     0.048329   
H363     H      0.115360000000     0.790050000000     0.981080000000     0.0441581  
H364     H      0.011820000000     0.885630000000     0.148390000000     0.0423821  
H365     H      0.172700000000     0.949080000000     0.051800000000     0.0361706  
H366     H      0.163020000000     0.882580000000     0.002430000000     0.0369956  
H367     H      0.067370000000     0.797840000000     0.951230000000     0.0365811  
H368     H      0.110600000000     0.935380000000     0.133620000000     0.0382346  
H369     H      0.917620000000     0.729750000000     0.053210000000     0.0360782  
H370     H      0.961070000000     0.691110000000     0.017510000000     0.0512914  
H371     H      0.926320000000     0.797920000000     0.100310000000     0.0379832  
H372     H      0.972290000000     0.897130000000     0.109400000000     0.0513538  
H373     H      0.088460000000     0.435630000000     0.034250000000     0.0340044  
H374     H      0.903520000000     0.153590000000     0.962300000000     0.0368671  
H375     H      0.956610000000     0.355640000000     0.095820000000     0.0414546  
H376     H      0.039270000000     0.221660000000     0.932780000000     0.0424829  
H377     H      0.868930000000     0.178280000000     0.041950000000     0.046043   
H378     H      0.881910000000     0.260080000000     0.071130000000     0.0402773  
H379     H      0.930550000000     0.365440000000     0.045210000000     0.0572373  
H380     H      0.914020000000     0.132910000000     0.014330000000     0.0556752  
H381     H      0.110270000000     0.394140000000     0.982240000000     0.033299   
H382     H      0.067070000000     0.387930000000     0.077370000000     0.0424015  
H383     H      0.088340000000     0.317780000000     0.939080000000     0.0341152  
H384     H      0.977950000000     0.212720000000     0.917720000000     0.0352482  
N1       N      0.577080000000     0.644450000000     0.951860000000    -0.174823   
N2       N      0.549860000000     0.530160000000     0.755590000000    -0.175223   
N3       N      0.557150000000     0.562820000000     0.239780000000    -0.172215   
N4       N      0.528440000000     0.488210000000     0.460120000000    -0.17454    
N5       N      0.504730000000     0.903780000000     0.537240000000    -0.183566   
N6       N      0.568310000000     0.705910000000     0.564630000000    -0.175004   
N7       N      0.522470000000     0.198960000000     0.621190000000    -0.173368   
N8       N      0.519910000000     0.409190000000     0.705300000000    -0.176124   
N9       N      0.564440000000     0.065180000000     0.914750000000    -0.178559   
N10      N      0.600660000000     0.139240000000     0.698010000000    -0.177421   
N11      N      0.582250000000     0.044810000000     0.204970000000    -0.176918   
N12      N      0.521080000000     0.091780000000     0.403750000000    -0.179166   
N13      N      0.625610000000     0.757110000000     0.034480000000    -0.18015    
N14      N      0.643810000000     0.992990000000     0.976520000000    -0.155857   
N15      N      0.672610000000     0.270590000000     0.098950000000    -0.174932   
N16      N      0.574780000000     0.433380000000     0.115920000000    -0.171691   
N17      N      0.944220000000     0.441960000000     0.465730000000    -0.174225   
N18      N      0.699350000000     0.222730000000     0.488980000000    -0.173124   
N19      N      0.222250000000     0.729550000000     0.585690000000    -0.177409   
N20      N      0.430560000000     0.956970000000     0.669600000000    -0.160192   
N21      N      0.925460000000     0.541140000000     0.577190000000    -0.163629   
N22      N      0.684390000000     0.519020000000     0.550400000000    -0.17553    
N23      N      0.248850000000     0.549320000000     0.521670000000    -0.191688   
N24      N      0.455810000000     0.603380000000     0.661040000000    -0.1771     
N25      N      0.123180000000     0.594910000000     0.667890000000    -0.175981   
N26      N      0.080200000000     0.590930000000     0.884720000000    -0.179519   
N27      N      0.080810000000     0.549720000000     0.160200000000    -0.175512   
N28      N      0.108490000000     0.545750000000     0.383290000000    -0.189317   
N29      N      0.727020000000     0.235810000000     0.975170000000    -0.179695   
N30      N      0.941520000000     0.480480000000     0.934730000000    -0.17147    
N31      N      0.196450000000     0.748280000000     0.098850000000    -0.17953    
N32      N      0.431650000000     0.980140000000     0.070050000000    -0.166445   
N33      N      0.885640000000     0.524520000000     0.096330000000    -0.161892   
N34      N      0.694280000000     0.567470000000     0.006040000000    -0.178183   
N35      N      0.229970000000     0.619930000000     0.031230000000    -0.177585   
N36      N      0.456190000000     0.617890000000     0.094770000000    -0.176323   
N37      N      0.968820000000     0.880300000000     0.575100000000    -0.175343   
N38      N      0.731000000000     0.662480000000     0.602790000000    -0.176142   
N39      N      0.210060000000     0.178960000000     0.455040000000    -0.176765   
N40      N      0.420160000000     0.400870000000     0.537460000000    -0.176026   
N41      N      0.925660000000     0.045010000000     0.544610000000    -0.177797   
N42      N      0.715150000000     0.081120000000     0.560050000000    -0.18514    
N43      N      0.242440000000     0.090000000000     0.609650000000    -0.176146   
N44      N      0.406430000000     0.048770000000     0.498590000000    -0.172511   
N45      N      0.070450000000     0.903480000000     0.481310000000    -0.177369   
N46      N      0.086160000000     0.684980000000     0.433000000000    -0.178058   
N47      N      0.053720000000     0.181840000000     0.593240000000    -0.175516   
N48      N      0.044390000000     0.410290000000     0.618510000000    -0.173002   
N49      N      0.146520000000     0.096700000000     0.690030000000    -0.17681    
N50      N      0.070940000000     0.108830000000     0.893980000000    -0.184563   
N51      N      0.138580000000     0.143440000000     0.178470000000    -0.170661   
N52      N      0.106520000000     0.076580000000     0.397450000000    -0.17369    
N53      N      0.904220000000     0.972780000000     0.023780000000    -0.172604   
N54      N      0.754110000000     0.741630000000     0.140150000000    -0.178195   
N55      N      0.134030000000     0.287380000000     0.080140000000    -0.174354   
N56      N      0.402090000000     0.430230000000     0.080430000000    -0.161349   
N57      N      0.946000000000     0.090030000000     0.180550000000    -0.155      
N58      N      0.716010000000     0.080350000000     0.141660000000    -0.17292    
N59      N      0.219580000000     0.126280000000     0.027710000000    -0.177099   
N60      N      0.460700000000     0.143680000000     0.051320000000    -0.183201   
N61      N      0.052620000000     0.946140000000     0.103240000000    -0.171302   
N62      N      0.038110000000     0.735700000000     0.997080000000    -0.177433   
N63      N      0.980470000000     0.174890000000     0.976490000000    -0.168607   
N64      N      0.011650000000     0.406240000000     0.052190000000    -0.176674   
O1       O      0.990570000000     0.128670000000     0.033460000000    -0.367881   
O2       O      0.989730000000     0.004250000000     0.017920000000    -0.435745   
O3       O      0.106830000000     0.148520000000     0.957700000000    -0.482787   
O4       O      0.984920000000     0.055340000000     0.143150000000    -0.34833    
O5       O      0.047950000000     0.066570000000     0.958670000000    -0.482051   
O6       O      0.989980000000     0.130850000000     0.120850000000    -0.362346   
O7       O      0.965560000000     0.043230000000     0.060890000000    -0.414243   
O8       O      0.058090000000     0.184300000000     0.996930000000    -0.436255   
O9       O      0.082370000000     0.150980000000     0.130930000000    -0.406629   
O10      O      0.136040000000     0.083100000000     0.004060000000    -0.44745    
O11      O      0.135890000000     0.214590000000     0.063570000000    -0.451778   
O12      O      0.013810000000     0.996060000000     0.097630000000    -0.353779   
O13      O      0.081120000000     0.020530000000     0.062700000000    -0.454612   
O14      O      0.063640000000     0.206090000000     0.076550000000    -0.366442   
O15      O      0.085120000000     0.082070000000     0.130060000000    -0.382759   
O16      O      0.170820000000     0.164560000000     0.026540000000    -0.45886    
O17      O      0.070430000000     0.107230000000     0.043830000000    -0.55873    
O18      O      0.116030000000     0.035840000000     0.458290000000    -0.437058   
O19      O      0.048250000000     0.102310000000     0.610180000000    -0.425383   
O20      O      0.995330000000     0.053830000000     0.512610000000    -0.434741   
O21      O      0.148210000000     0.148270000000     0.503120000000    -0.454061   
O22      O      0.977950000000     0.018020000000     0.576000000000    -0.459322   
O23      O      0.190420000000     0.108090000000     0.500070000000    -0.437061   
O24      O      0.086190000000     0.145950000000     0.553010000000    -0.458929   
O25      O      0.061150000000     0.062970000000     0.456980000000    -0.431898   
O26      O      0.166570000000     0.041040000000     0.573830000000    -0.443654   
O27      O      0.026710000000     0.963170000000     0.596630000000    -0.441921   
O28      O      0.040490000000     0.960510000000     0.479940000000    -0.432287   
O29      O      0.136480000000     0.128110000000     0.623740000000    -0.443622   
O30      O      0.099590000000     0.044310000000     0.634330000000    -0.453212   
O31      O      0.095020000000     0.966850000000     0.530330000000    -0.44776    
O32      O      0.198650000000     0.125700000000     0.573960000000    -0.437273   
O33      O      0.981960000000     0.953170000000     0.536400000000    -0.438647   
O34      O      0.085230000000     0.053420000000     0.544960000000    -0.527372   
O35      O      0.015180000000     0.501710000000     0.973600000000    -0.443539   
O36      O      0.018580000000     0.658590000000     0.031250000000    -0.455669   
O37      O      0.932120000000     0.496280000000     0.064770000000    -0.412525   
O38      O      0.090390000000     0.635900000000     0.945080000000    -0.472116   
O39      O      0.971460000000     0.577960000000     0.084060000000    -0.466397   
O40      O      0.102000000000     0.569160000000     0.950330000000    -0.45688    
O41      O      0.089850000000     0.699990000000     0.998940000000    -0.445818   
O42      O      0.970000000000     0.536110000000     0.991600000000    -0.429574   
O43      O      0.144550000000     0.568670000000     0.033650000000    -0.455955   
O44      O      0.071480000000     0.610720000000     0.120340000000    -0.462141   
O45      O      0.983530000000     0.464610000000     0.042270000000    -0.390209   
O46      O      0.162370000000     0.686200000000     0.048360000000    -0.480248   
O47      O      0.110520000000     0.700820000000     0.080390000000    -0.41954    
O48      O      0.062330000000     0.495000000000     0.054860000000    -0.455124   
O49      O      0.173620000000     0.636200000000     0.990880000000    -0.430873   
O50      O      0.021550000000     0.529100000000     0.105180000000    -0.427102   
O51      O      0.067030000000     0.591980000000     0.030350000000    -0.546209   
O52      O      0.020840000000     0.455670000000     0.494540000000    -0.448623   
O53      O      0.060060000000     0.628250000000     0.490130000000    -0.434365   
O54      O      0.978490000000     0.507310000000     0.590910000000    -0.392218   
O55      O      0.145300000000     0.591010000000     0.443900000000    -0.519402   
O56      O      0.008120000000     0.582700000000     0.557960000000    -0.463016   
O57      O      0.097720000000     0.506160000000     0.449270000000    -0.486164   
O58      O      0.138620000000     0.663880000000     0.473240000000    -0.464449   
O59      O      0.996860000000     0.510970000000     0.508620000000    -0.427212   
O60      O      0.162180000000     0.508650000000     0.516330000000    -0.483868   
O61      O      0.099230000000     0.622290000000     0.606030000000    -0.451758   
O62      O      0.016090000000     0.454130000000     0.573060000000    -0.39399    
O63      O      0.195000000000     0.656100000000     0.547230000000    -0.482824   
O64      O      0.146060000000     0.688420000000     0.546430000000    -0.416629   
O65      O      0.090300000000     0.466400000000     0.565450000000    -0.459994   
O66      O      0.205920000000     0.592540000000     0.508670000000    -0.521718   
O67      O      0.075990000000     0.540720000000     0.613050000000    -0.440009   
O68      O      0.100730000000     0.562520000000     0.527600000000    -0.530506   
O69      O      0.529840000000     0.152830000000     0.092370000000    -0.449995   
O70      O      0.681850000000     0.066390000000     0.017690000000    -0.411794   
O71      O      0.551120000000     0.098660000000     0.973250000000    -0.464592   
O72      O      0.513050000000     0.005860000000     0.054370000000    -0.422905   
O73      O      0.613760000000     0.084190000000     0.977000000000    -0.424326   
O74      O      0.501750000000     0.050040000000     0.104020000000    -0.400536   
O75      O      0.598770000000     0.009600000000     0.023040000000    -0.439982   
O76      O      0.513220000000     0.115680000000     0.032540000000    -0.48097    
O77      O      0.606330000000     0.095030000000     0.144510000000    -0.46225    
O78      O      0.695650000000     0.162650000000     0.018640000000    -0.431308   
O79      O      0.611120000000     0.208050000000     0.054860000000    -0.445557   
O80      O      0.639400000000     0.032010000000     0.105010000000    -0.441916   
O81      O      0.684200000000     0.113270000000     0.088690000000    -0.429932   
O82      O      0.626720000000     0.184710000000     0.119660000000    -0.448027   
O83      O      0.552650000000     0.014530000000     0.136370000000    -0.401651   
O84      O      0.643410000000     0.186810000000     0.990470000000    -0.476853   
O85      O      0.596400000000     0.106220000000     0.059900000000    -0.585243   
O86      O      0.458590000000     0.030000000000     0.542680000000    -0.43275    
O87      O      0.541460000000     0.986940000000     0.508110000000    -0.460866   
O88      O      0.561160000000     0.138680000000     0.464530000000    -0.444777   
O89      O      0.506050000000     0.002740000000     0.634640000000    -0.461541   
O90      O      0.527200000000     0.055510000000     0.467980000000    -0.463271   
O91      O      0.448300000000     0.026690000000     0.624540000000    -0.415647   
O92      O      0.546980000000     0.976870000000     0.577070000000    -0.492396   
O93      O      0.488500000000     0.110450000000     0.516660000000    -0.443192   
O94      O      0.541240000000     0.097790000000     0.643660000000    -0.428595   
O95      O      0.636460000000     0.135190000000     0.484850000000    -0.419076   
O96      O      0.564390000000     0.172780000000     0.580650000000    -0.455883   
O97      O      0.642270000000     0.059710000000     0.592620000000    -0.461725   
O98      O      0.641350000000     0.061630000000     0.523440000000    -0.494134   
O99      O      0.486240000000     0.117590000000     0.591790000000    -0.390906   
O100     O      0.608840000000     0.093590000000     0.645550000000    -0.455466   
O101     O      0.631690000000     0.185770000000     0.531000000000    -0.456221   
O102     O      0.563090000000     0.083280000000     0.555480000000    -0.546099   
O103     O      0.477080000000     0.495950000000     0.052050000000    -0.399123   
O104     O      0.590510000000     0.695300000000     0.087550000000    -0.462567   
O105     O      0.497090000000     0.572450000000     0.088250000000    -0.423836   
O106     O      0.627500000000     0.638680000000     0.006900000000    -0.437531   
O107     O      0.522570000000     0.627330000000     0.139350000000    -0.443162   
O108     O      0.544530000000     0.587530000000     0.008350000000    -0.42043    
O109     O      0.661720000000     0.710430000000     0.061860000000    -0.4617     
O110     O      0.476150000000     0.477220000000     0.120260000000    -0.414198   
O111     O      0.612990000000     0.550320000000     0.011140000000    -0.39441    
O112     O      0.601320000000     0.620920000000     0.186360000000    -0.439252   
O113     O      0.573390000000     0.507150000000     0.134500000000    -0.408575   
O114     O      0.699510000000     0.658900000000     0.115950000000    -0.448053   
O115     O      0.667780000000     0.701730000000     0.141310000000    -0.448014   
O116     O      0.559010000000     0.484310000000     0.068830000000    -0.464253   
O117     O      0.666330000000     0.585740000000     0.063820000000    -0.45733    
O118     O      0.529240000000     0.551530000000     0.169600000000    -0.402783   
O119     O      0.593130000000     0.600270000000     0.094080000000    -0.55973    
O120     O      0.490660000000     0.427550000000     0.582170000000    -0.447066   
O121     O      0.600070000000     0.664090000000     0.608520000000    -0.445633   
O122     O      0.475410000000     0.559870000000     0.615990000000    -0.444071   
O123     O      0.532530000000     0.536490000000     0.515790000000    -0.431636   
O124     O      0.533160000000     0.610690000000     0.662650000000    -0.440638   
O125     O      0.557780000000     0.480180000000     0.527900000000    -0.427052   
O126     O      0.555760000000     0.624720000000     0.550650000000    -0.433464   
O127     O      0.453760000000     0.474340000000     0.578340000000    -0.43797    
O128     O      0.631490000000     0.518820000000     0.597820000000    -0.449616   
O129     O      0.588380000000     0.562000000000     0.692250000000    -0.4464     
O130     O      0.483710000000     0.440580000000     0.654850000000    -0.438488   
O131     O      0.653740000000     0.642180000000     0.571710000000    -0.446055   
O132     O      0.657180000000     0.617650000000     0.638010000000    -0.445657   
O133     O      0.563650000000     0.465650000000     0.651280000000    -0.441514   
O134     O      0.635640000000     0.557970000000     0.536820000000    -0.419832   
O135     O      0.505850000000     0.524770000000     0.691870000000    -0.435427   
O136     O      0.557120000000     0.544530000000     0.604550000000    -0.522433   


