data_structure

_audit_creation_method RASPA-1.0
_audit_creation_date 2023-5-19
_audit_author_name 'Poobodin Mano'

_cell_length_a    24.98
_cell_length_b    26.6351
_cell_length_c    23.4497
_cell_angle_alpha 90
_cell_angle_beta  90
_cell_angle_gamma 90
_cell_volume      15602.1

_symmetry_cell_setting          triclinic
_symmetry_space_group_name_Hall 'P 1'
_symmetry_space_group_name_H-M  'P 1'
_symmetry_Int_Tables_number     1

_symmetry_equiv_pos_as_xyz 'x,y,z'

loop_
_atom_site_label
_atom_site_type_symbol
_atom_site_fract_x
_atom_site_fract_y
_atom_site_fract_z
_atom_site_charge
C1       C      0.429020000000     0.417220000000     0.511190000000     0.401006   
C2       C      0.149000000000     0.098640000000     0.519510000000     0.422473   
C3       C      0.445210000000     0.065940000000     0.469680000000     0.420346   
C4       C      0.114430000000     0.407320000000     0.499170000000     0.404563   
C5       C      0.138710000000     0.421190000000     0.142240000000     0.411271   
C6       C      0.441760000000     0.111300000000     0.124510000000     0.407426   
C7       C      0.448340000000     0.438500000000     0.170990000000     0.417673   
C8       C      0.108070000000     0.101250000000     0.147700000000     0.387372   
C9       C      0.398410000000     0.340990000000     0.261080000000     0.421095   
C10      C      0.195200000000     0.151880000000     0.262960000000     0.389425   
C11      C      0.354170000000     0.160360000000     0.234790000000     0.404948   
C12      C      0.193410000000     0.325920000000     0.237530000000     0.408991   
C13      C      0.201590000000     0.356900000000     0.385330000000     0.400758   
C14      C      0.398580000000     0.150260000000     0.365920000000     0.421571   
C15      C      0.383880000000     0.326920000000     0.401850000000     0.405737   
C16      C      0.199070000000     0.189240000000     0.424710000000     0.425257   
C17      C      0.429020000000     0.417220000000     0.011190000000     0.401123   
C18      C      0.149000000000     0.098640000000     0.019510000000     0.422568   
C19      C      0.445210000000     0.065940000000     0.969680000000     0.420215   
C20      C      0.114430000000     0.407320000000     0.999170000000     0.404258   
C21      C      0.138710000000     0.421190000000     0.642230000000     0.411266   
C22      C      0.441760000000     0.111300000000     0.624510000000     0.40742    
C23      C      0.448340000000     0.438500000000     0.670990000000     0.417617   
C24      C      0.108070000000     0.101250000000     0.647700000000     0.387378   
C25      C      0.398410000000     0.340990000000     0.761080000000     0.421091   
C26      C      0.195200000000     0.151880000000     0.762960000000     0.38942    
C27      C      0.354170000000     0.160360000000     0.734790000000     0.404885   
C28      C      0.193410000000     0.325920000000     0.737520000000     0.40898    
C29      C      0.201590000000     0.356900000000     0.885330000000     0.400747   
C30      C      0.398580000000     0.150260000000     0.865910000000     0.421552   
C31      C      0.383880000000     0.326920000000     0.901850000000     0.405727   
C32      C      0.199070000000     0.189240000000     0.924710000000     0.425304   
C33      C      0.429020000000     0.917220000000     0.511190000000     0.400978   
C34      C      0.149000000000     0.598640000000     0.519510000000     0.422515   
C35      C      0.445210000000     0.565940000000     0.469680000000     0.4204     
C36      C      0.114430000000     0.907320000000     0.499170000000     0.404647   
C37      C      0.138710000000     0.921190000000     0.142240000000     0.411066   
C38      C      0.441760000000     0.611300000000     0.124510000000     0.407361   
C39      C      0.448340000000     0.938500000000     0.170990000000     0.417659   
C40      C      0.108070000000     0.601240000000     0.147700000000     0.387305   
C41      C      0.398410000000     0.840990000000     0.261080000000     0.42111    
C42      C      0.195200000000     0.651880000000     0.262960000000     0.389451   
C43      C      0.354170000000     0.660360000000     0.234790000000     0.40508    
C44      C      0.193410000000     0.825920000000     0.237530000000     0.408997   
C45      C      0.201590000000     0.856900000000     0.385330000000     0.400634   
C46      C      0.398580000000     0.650260000000     0.365910000000     0.42159    
C47      C      0.383880000000     0.826920000000     0.401850000000     0.405752   
C48      C      0.199070000000     0.689240000000     0.424710000000     0.425253   
C49      C      0.429020000000     0.917220000000     0.011190000000     0.401095   
C50      C      0.149000000000     0.598640000000     0.019510000000     0.422609   
C51      C      0.445210000000     0.565940000000     0.969680000000     0.420268   
C52      C      0.114430000000     0.907320000000     0.999170000000     0.404344   
C53      C      0.138710000000     0.921190000000     0.642230000000     0.411089   
C54      C      0.441760000000     0.611300000000     0.624510000000     0.407355   
C55      C      0.448340000000     0.938500000000     0.670990000000     0.417603   
C56      C      0.108070000000     0.601240000000     0.647700000000     0.387311   
C57      C      0.398410000000     0.840990000000     0.761080000000     0.421106   
C58      C      0.195200000000     0.651880000000     0.762960000000     0.389446   
C59      C      0.354170000000     0.660360000000     0.734790000000     0.405019   
C60      C      0.193410000000     0.825920000000     0.737520000000     0.408984   
C61      C      0.201590000000     0.856900000000     0.885330000000     0.400623   
C62      C      0.398580000000     0.650260000000     0.865910000000     0.421557   
C63      C      0.383880000000     0.826920000000     0.901850000000     0.405742   
C64      C      0.199070000000     0.689240000000     0.924710000000     0.4253     
C65      C      0.929020000000     0.417220000000     0.511190000000     0.401003   
C66      C      0.649000000000     0.098640000000     0.519510000000     0.422477   
C67      C      0.945210000000     0.065940000000     0.469680000000     0.420344   
C68      C      0.614430000000     0.407320000000     0.499170000000     0.404567   
C69      C      0.638710000000     0.421190000000     0.142240000000     0.411389   
C70      C      0.941760000000     0.111300000000     0.124510000000     0.407423   
C71      C      0.948340000000     0.438500000000     0.170990000000     0.417669   
C72      C      0.608070000000     0.101250000000     0.147700000000     0.387379   
C73      C      0.898410000000     0.340990000000     0.261080000000     0.421103   
C74      C      0.695200000000     0.151880000000     0.262960000000     0.389382   
C75      C      0.854170000000     0.160360000000     0.234790000000     0.404949   
C76      C      0.693410000000     0.325920000000     0.237530000000     0.40899    
C77      C      0.701590000000     0.356900000000     0.385330000000     0.400714   
C78      C      0.898580000000     0.150260000000     0.365910000000     0.421593   
C79      C      0.883880000000     0.326920000000     0.401850000000     0.405744   
C80      C      0.699070000000     0.189240000000     0.424710000000     0.425256   
C81      C      0.929020000000     0.417220000000     0.011190000000     0.401118   
C82      C      0.649000000000     0.098640000000     0.019510000000     0.422572   
C83      C      0.945210000000     0.065940000000     0.969680000000     0.420211   
C84      C      0.614430000000     0.407320000000     0.999170000000     0.404264   
C85      C      0.638710000000     0.421190000000     0.642230000000     0.411412   
C86      C      0.941760000000     0.111300000000     0.624510000000     0.407359   
C87      C      0.948340000000     0.438500000000     0.670990000000     0.417617   
C88      C      0.608070000000     0.101250000000     0.647700000000     0.387383   
C89      C      0.898410000000     0.340990000000     0.761080000000     0.421099   
C90      C      0.695200000000     0.151880000000     0.762960000000     0.389378   
C91      C      0.854170000000     0.160360000000     0.734790000000     0.404889   
C92      C      0.693410000000     0.325920000000     0.737520000000     0.408977   
C93      C      0.701590000000     0.356900000000     0.885330000000     0.400703   
C94      C      0.898580000000     0.150260000000     0.865910000000     0.421559   
C95      C      0.883880000000     0.326920000000     0.901850000000     0.405735   
C96      C      0.699070000000     0.189240000000     0.924710000000     0.425303   
C97      C      0.929020000000     0.917220000000     0.511190000000     0.400972   
C98      C      0.649000000000     0.598640000000     0.519510000000     0.422517   
C99      C      0.945210000000     0.565940000000     0.469680000000     0.420396   
C100     C      0.614430000000     0.907320000000     0.499170000000     0.404653   
C101     C      0.638710000000     0.921190000000     0.142240000000     0.411216   
C102     C      0.941760000000     0.611300000000     0.124510000000     0.407359   
C103     C      0.948340000000     0.938500000000     0.170990000000     0.417655   
C104     C      0.608070000000     0.601240000000     0.147700000000     0.387311   
C105     C      0.898410000000     0.840990000000     0.261080000000     0.421118   
C106     C      0.695200000000     0.651880000000     0.262960000000     0.389408   
C107     C      0.854170000000     0.660360000000     0.234790000000     0.405086   
C108     C      0.693410000000     0.825920000000     0.237530000000     0.408994   
C109     C      0.701590000000     0.856900000000     0.385330000000     0.40059    
C110     C      0.898580000000     0.650260000000     0.365920000000     0.421583   
C111     C      0.883880000000     0.826920000000     0.401850000000     0.40576    
C112     C      0.699070000000     0.689240000000     0.424710000000     0.425251   
C113     C      0.929020000000     0.917220000000     0.011190000000     0.40109    
C114     C      0.649000000000     0.598640000000     0.019510000000     0.422612   
C115     C      0.945210000000     0.565940000000     0.969680000000     0.420264   
C116     C      0.614430000000     0.907320000000     0.999170000000     0.404351   
C117     C      0.638710000000     0.921190000000     0.642230000000     0.411238   
C118     C      0.941760000000     0.611300000000     0.624510000000     0.407355   
C119     C      0.948340000000     0.938500000000     0.670990000000     0.417599   
C120     C      0.608070000000     0.601240000000     0.647700000000     0.387315   
C121     C      0.898410000000     0.840990000000     0.761080000000     0.421114   
C122     C      0.695200000000     0.651880000000     0.762960000000     0.389404   
C123     C      0.854170000000     0.660360000000     0.734790000000     0.405023   
C124     C      0.693410000000     0.825920000000     0.737520000000     0.408981   
C125     C      0.701590000000     0.856900000000     0.885330000000     0.400579   
C126     C      0.898580000000     0.650260000000     0.865910000000     0.421564   
C127     C      0.883880000000     0.826920000000     0.901850000000     0.40575    
C128     C      0.699070000000     0.689240000000     0.924710000000     0.425299   
Co1      Co     0.031260000000     0.431620000000     0.579370000000     0.844965   
Co2      Co     0.534290000000     0.080320000000     0.052770000000     0.845921   
Co3      Co     0.455890000000     0.509080000000     0.576210000000     0.850416   
Co4      Co     0.111360000000     0.506010000000     0.071330000000     0.831669   
Co5      Co     0.292190000000     0.325720000000     0.317050000000     0.842043   
Co6      Co     0.285950000000     0.176900000000     0.336960000000     0.8497     
Co7      Co     0.366370000000     0.246240000000     0.315630000000     0.850365   
Co8      Co     0.209980000000     0.253160000000     0.325590000000     0.838177   
Co9      Co     0.031260000000     0.431620000000     0.079370000000     0.844923   
Co10     Co     0.534290000000     0.080320000000     0.552780000000     0.845818   
Co11     Co     0.455890000000     0.509080000000     0.076210000000     0.85043    
Co12     Co     0.111360000000     0.506010000000     0.571330000000     0.831705   
Co13     Co     0.292190000000     0.325720000000     0.817050000000     0.842036   
Co14     Co     0.285950000000     0.176900000000     0.836960000000     0.849672   
Co15     Co     0.366370000000     0.246240000000     0.815630000000     0.850361   
Co16     Co     0.209980000000     0.253160000000     0.825590000000     0.838105   
Co17     Co     0.031260000000     0.931620000000     0.579370000000     0.845782   
Co18     Co     0.534290000000     0.580320000000     0.052770000000     0.845627   
Co19     Co     0.455890000000     0.009080000000     0.576210000000     0.849109   
Co20     Co     0.111360000000     0.006010000000     0.071330000000     0.830326   
Co21     Co     0.292190000000     0.825720000000     0.317050000000     0.842022   
Co22     Co     0.285950000000     0.676900000000     0.336960000000     0.849753   
Co23     Co     0.366370000000     0.746250000000     0.315630000000     0.850337   
Co24     Co     0.209980000000     0.753160000000     0.325590000000     0.838187   
Co25     Co     0.031260000000     0.931620000000     0.079370000000     0.845778   
Co26     Co     0.534290000000     0.580320000000     0.552780000000     0.845524   
Co27     Co     0.455890000000     0.009080000000     0.076210000000     0.849123   
Co28     Co     0.111360000000     0.006010000000     0.571330000000     0.830327   
Co29     Co     0.292190000000     0.825720000000     0.817050000000     0.842016   
Co30     Co     0.285950000000     0.676900000000     0.836960000000     0.849727   
Co31     Co     0.366370000000     0.746250000000     0.815630000000     0.850327   
Co32     Co     0.209980000000     0.753160000000     0.825590000000     0.838116   
Co33     Co     0.531260000000     0.431620000000     0.579370000000     0.845085   
Co34     Co     0.034290000000     0.080320000000     0.052770000000     0.845742   
Co35     Co     0.955890000000     0.509080000000     0.576210000000     0.85058    
Co36     Co     0.611360000000     0.506010000000     0.071330000000     0.831661   
Co37     Co     0.792190000000     0.325720000000     0.317050000000     0.84204    
Co38     Co     0.785950000000     0.176900000000     0.336960000000     0.849691   
Co39     Co     0.866370000000     0.246240000000     0.315630000000     0.850443   
Co40     Co     0.709980000000     0.253160000000     0.325590000000     0.838105   
Co41     Co     0.531260000000     0.431620000000     0.079370000000     0.845082   
Co42     Co     0.034290000000     0.080320000000     0.552780000000     0.845658   
Co43     Co     0.955890000000     0.509080000000     0.076210000000     0.850553   
Co44     Co     0.611360000000     0.506010000000     0.571330000000     0.831664   
Co45     Co     0.792190000000     0.325720000000     0.817050000000     0.842034   
Co46     Co     0.785950000000     0.176900000000     0.836960000000     0.849665   
Co47     Co     0.866370000000     0.246240000000     0.815630000000     0.850434   
Co48     Co     0.709980000000     0.253160000000     0.825590000000     0.838033   
Co49     Co     0.531260000000     0.931620000000     0.579370000000     0.845941   
Co50     Co     0.034290000000     0.580320000000     0.052770000000     0.845448   
Co51     Co     0.955890000000     0.009080000000     0.576210000000     0.84923    
Co52     Co     0.611360000000     0.006010000000     0.071330000000     0.83032    
Co53     Co     0.792190000000     0.825720000000     0.317050000000     0.84202    
Co54     Co     0.785950000000     0.676900000000     0.336960000000     0.849749   
Co55     Co     0.866370000000     0.746250000000     0.315630000000     0.850405   
Co56     Co     0.709980000000     0.753160000000     0.325590000000     0.838115   
Co57     Co     0.531260000000     0.931620000000     0.079370000000     0.845938   
Co58     Co     0.034290000000     0.580320000000     0.552780000000     0.845362   
Co59     Co     0.955890000000     0.009080000000     0.076210000000     0.849246   
Co60     Co     0.611360000000     0.006010000000     0.571330000000     0.830322   
Co61     Co     0.792190000000     0.825720000000     0.817050000000     0.842013   
Co62     Co     0.785950000000     0.676900000000     0.836960000000     0.849721   
Co63     Co     0.866370000000     0.746250000000     0.815630000000     0.8504     
Co64     Co     0.709980000000     0.753160000000     0.825590000000     0.838044   
H1       H      0.109170000000     0.167160000000     0.195310000000     0.128343   
H2       H      0.186630000000     0.083100000000     0.222560000000     0.128435   
H3       H      0.139610000000     0.193730000000     0.485520000000     0.130299   
H4       H      0.227120000000     0.116000000000     0.497730000000     0.129178   
H5       H      0.210780000000     0.412330000000     0.184300000000     0.12975    
H6       H      0.127270000000     0.329450000000     0.184710000000     0.129162   
H7       H      0.350960000000     0.098090000000     0.182380000000     0.130923   
H8       H      0.429540000000     0.182570000000     0.157370000000     0.128928   
H9       H      0.447010000000     0.328770000000     0.459390000000     0.129057   
H10      H      0.360220000000     0.408640000000     0.462920000000     0.129366   
H11      H      0.475950000000     0.128240000000     0.385270000000     0.12866    
H12      H      0.383040000000     0.059430000000     0.412090000000     0.130064   
H13      H      0.118490000000     0.340890000000     0.453690000000     0.130441   
H14      H      0.194650000000     0.425990000000     0.425810000000     0.126977   
H15      H      0.472640000000     0.354390000000     0.225950000000     0.130275   
H16      H      0.391000000000     0.438620000000     0.234700000000     0.129582   
H17      H      0.109170000000     0.167160000000     0.695310000000     0.128337   
H18      H      0.186630000000     0.083100000000     0.722560000000     0.12843    
H19      H      0.139610000000     0.193730000000     0.985520000000     0.130261   
H20      H      0.227120000000     0.116000000000     0.997730000000     0.129139   
H21      H      0.210780000000     0.412330000000     0.684300000000     0.129766   
H22      H      0.127270000000     0.329450000000     0.684710000000     0.129161   
H23      H      0.350960000000     0.098090000000     0.682380000000     0.130907   
H24      H      0.429540000000     0.182570000000     0.657370000000     0.128915   
H25      H      0.447010000000     0.328770000000     0.959390000000     0.129021   
H26      H      0.360220000000     0.408640000000     0.962930000000     0.129348   
H27      H      0.475950000000     0.128240000000     0.885270000000     0.128647   
H28      H      0.383040000000     0.059430000000     0.912090000000     0.13004    
H29      H      0.118490000000     0.340890000000     0.953690000000     0.130411   
H30      H      0.194650000000     0.425990000000     0.925800000000     0.126953   
H31      H      0.472640000000     0.354390000000     0.725950000000     0.13027    
H32      H      0.391000000000     0.438620000000     0.734700000000     0.129579   
H33      H      0.109170000000     0.667160000000     0.195310000000     0.128349   
H34      H      0.186630000000     0.583100000000     0.222560000000     0.128575   
H35      H      0.139610000000     0.693740000000     0.485520000000     0.130275   
H36      H      0.227120000000     0.616000000000     0.497730000000     0.129249   
H37      H      0.210780000000     0.912330000000     0.184300000000     0.129844   
H38      H      0.127270000000     0.829450000000     0.184710000000     0.129169   
H39      H      0.350960000000     0.598090000000     0.182380000000     0.131044   
H40      H      0.429540000000     0.682570000000     0.157370000000     0.128928   
H41      H      0.447010000000     0.828770000000     0.459390000000     0.129069   
H42      H      0.360220000000     0.908640000000     0.462920000000     0.129471   
H43      H      0.475950000000     0.628240000000     0.385270000000     0.128702   
H44      H      0.383040000000     0.559430000000     0.412090000000     0.130226   
H45      H      0.118490000000     0.840890000000     0.453690000000     0.130415   
H46      H      0.194650000000     0.925990000000     0.425810000000     0.12716    
H47      H      0.472640000000     0.854390000000     0.225950000000     0.130299   
H48      H      0.391000000000     0.938620000000     0.234700000000     0.12973    
H49      H      0.109170000000     0.667160000000     0.695310000000     0.128343   
H50      H      0.186630000000     0.583100000000     0.722560000000     0.12857    
H51      H      0.139610000000     0.693740000000     0.985520000000     0.130237   
H52      H      0.227120000000     0.616000000000     0.997730000000     0.12921    
H53      H      0.210780000000     0.912330000000     0.684300000000     0.129831   
H54      H      0.127270000000     0.829450000000     0.684710000000     0.129169   
H55      H      0.350960000000     0.598090000000     0.682380000000     0.131028   
H56      H      0.429540000000     0.682570000000     0.657370000000     0.128916   
H57      H      0.447010000000     0.828770000000     0.959390000000     0.129032   
H58      H      0.360220000000     0.908640000000     0.962930000000     0.129453   
H59      H      0.475950000000     0.628240000000     0.885270000000     0.128692   
H60      H      0.383040000000     0.559430000000     0.912090000000     0.130202   
H61      H      0.118490000000     0.840890000000     0.953690000000     0.130386   
H62      H      0.194650000000     0.925990000000     0.925800000000     0.127136   
H63      H      0.472640000000     0.854390000000     0.725950000000     0.130294   
H64      H      0.391000000000     0.938620000000     0.734700000000     0.129727   
H65      H      0.609170000000     0.167160000000     0.195310000000     0.12836    
H66      H      0.686630000000     0.083100000000     0.222560000000     0.12841    
H67      H      0.639610000000     0.193730000000     0.485520000000     0.130311   
H68      H      0.727120000000     0.116000000000     0.497730000000     0.129179   
H69      H      0.710780000000     0.412330000000     0.184300000000     0.129753   
H70      H      0.627270000000     0.329450000000     0.184710000000     0.129178   
H71      H      0.850960000000     0.098090000000     0.182380000000     0.130923   
H72      H      0.929540000000     0.182570000000     0.157370000000     0.12894    
H73      H      0.947010000000     0.328770000000     0.459390000000     0.129077   
H74      H      0.860220000000     0.408640000000     0.462920000000     0.129367   
H75      H      0.975950000000     0.128240000000     0.385270000000     0.128683   
H76      H      0.883040000000     0.059430000000     0.412090000000     0.130067   
H77      H      0.618490000000     0.340890000000     0.453690000000     0.130455   
H78      H      0.694650000000     0.425990000000     0.425810000000     0.126952   
H79      H      0.972640000000     0.354390000000     0.225950000000     0.1303     
H80      H      0.891000000000     0.438620000000     0.234700000000     0.129585   
H81      H      0.609170000000     0.167160000000     0.695310000000     0.128354   
H82      H      0.686630000000     0.083100000000     0.722560000000     0.128406   
H83      H      0.639610000000     0.193730000000     0.985520000000     0.130274   
H84      H      0.727120000000     0.116000000000     0.997730000000     0.129139   
H85      H      0.710780000000     0.412330000000     0.684300000000     0.12974    
H86      H      0.627270000000     0.329450000000     0.684710000000     0.129178   
H87      H      0.850960000000     0.098090000000     0.682380000000     0.130908   
H88      H      0.929540000000     0.182570000000     0.657370000000     0.128925   
H89      H      0.947010000000     0.328770000000     0.959390000000     0.12904    
H90      H      0.860220000000     0.408640000000     0.962930000000     0.129348   
H91      H      0.975950000000     0.128240000000     0.885270000000     0.128672   
H92      H      0.883040000000     0.059430000000     0.912090000000     0.130043   
H93      H      0.618490000000     0.340890000000     0.953690000000     0.130426   
H94      H      0.694650000000     0.425990000000     0.925800000000     0.126927   
H95      H      0.972640000000     0.354390000000     0.725950000000     0.130295   
H96      H      0.891000000000     0.438620000000     0.734700000000     0.129583   
H97      H      0.609170000000     0.667160000000     0.195310000000     0.128366   
H98      H      0.686630000000     0.583100000000     0.222560000000     0.12855    
H99      H      0.639610000000     0.693740000000     0.485520000000     0.130287   
H100     H      0.727120000000     0.616000000000     0.497730000000     0.129249   
H101     H      0.710780000000     0.912330000000     0.184300000000     0.129818   
H102     H      0.627270000000     0.829450000000     0.184710000000     0.129186   
H103     H      0.850960000000     0.598090000000     0.182380000000     0.131045   
H104     H      0.929540000000     0.682570000000     0.157370000000     0.128941   
H105     H      0.947010000000     0.828770000000     0.459390000000     0.129088   
H106     H      0.860220000000     0.908640000000     0.462920000000     0.129471   
H107     H      0.975950000000     0.628240000000     0.385270000000     0.12873    
H108     H      0.883040000000     0.559430000000     0.412090000000     0.130228   
H109     H      0.618490000000     0.840890000000     0.453690000000     0.13043    
H110     H      0.694650000000     0.925990000000     0.425810000000     0.127135   
H111     H      0.972640000000     0.854390000000     0.225950000000     0.130324   
H112     H      0.891000000000     0.938620000000     0.234700000000     0.129733   
H113     H      0.609170000000     0.667160000000     0.695310000000     0.12836    
H114     H      0.686630000000     0.583100000000     0.722560000000     0.128546   
H115     H      0.639610000000     0.693740000000     0.985520000000     0.130249   
H116     H      0.727120000000     0.616000000000     0.997730000000     0.12921    
H117     H      0.710780000000     0.912330000000     0.684300000000     0.129805   
H118     H      0.627270000000     0.829450000000     0.684710000000     0.129186   
H119     H      0.850960000000     0.598090000000     0.682380000000     0.131028   
H120     H      0.929540000000     0.682570000000     0.657370000000     0.128929   
H121     H      0.947010000000     0.828770000000     0.959390000000     0.129052   
H122     H      0.860220000000     0.908640000000     0.962930000000     0.129453   
H123     H      0.975950000000     0.628240000000     0.885270000000     0.128717   
H124     H      0.883040000000     0.559430000000     0.912090000000     0.130204   
H125     H      0.618490000000     0.840890000000     0.953690000000     0.1304     
H126     H      0.694650000000     0.925990000000     0.925800000000     0.12711    
H127     H      0.972640000000     0.854390000000     0.725950000000     0.130319   
H128     H      0.891000000000     0.938620000000     0.734700000000     0.129731   
N1       N      0.127330000000     0.132070000000     0.190010000000    -0.167572   
N2       N      0.170750000000     0.119350000000     0.225670000000    -0.167221   
N3       N      0.173750000000     0.174150000000     0.472250000000    -0.176314   
N4       N      0.187450000000     0.128620000000     0.498280000000    -0.174931   
N5       N      0.173750000000     0.395670000000     0.175440000000    -0.17275    
N6       N      0.162340000000     0.347890000000     0.197290000000    -0.172759   
N7       N      0.370500000000     0.132210000000     0.189870000000    -0.171894   
N8       N      0.415150000000     0.145690000000     0.156420000000    -0.171029   
N9       N      0.412450000000     0.347430000000     0.445790000000    -0.170536   
N10      N      0.397020000000     0.392280000000     0.473370000000    -0.169021   
N11      N      0.435360000000     0.118830000000     0.388100000000    -0.174157   
N12      N      0.419120000000     0.077730000000     0.421240000000    -0.174835   
N13      N      0.135700000000     0.376470000000     0.458480000000    -0.170349   
N14      N      0.178260000000     0.389960000000     0.422360000000    -0.169084   
N15      N      0.435070000000     0.369960000000     0.234790000000    -0.17474    
N16      N      0.422910000000     0.418850000000     0.216490000000    -0.175061   
N17      N      0.127330000000     0.132070000000     0.690010000000    -0.167576   
N18      N      0.170750000000     0.119350000000     0.725670000000    -0.167223   
N19      N      0.173750000000     0.174150000000     0.972240000000    -0.176358   
N20      N      0.187450000000     0.128620000000     0.998270000000    -0.174983   
N21      N      0.173760000000     0.395670000000     0.675440000000    -0.172736   
N22      N      0.162340000000     0.347890000000     0.697290000000    -0.172797   
N23      N      0.370500000000     0.132210000000     0.689860000000    -0.171857   
N24      N      0.415150000000     0.145690000000     0.656420000000    -0.171032   
N25      N      0.412450000000     0.347430000000     0.945790000000    -0.17054    
N26      N      0.397020000000     0.392280000000     0.973370000000    -0.169102   
N27      N      0.435360000000     0.118830000000     0.888100000000    -0.174138   
N28      N      0.419120000000     0.077730000000     0.921240000000    -0.174821   
N29      N      0.135700000000     0.376470000000     0.958480000000    -0.17031    
N30      N      0.178260000000     0.389960000000     0.922360000000    -0.169092   
N31      N      0.435070000000     0.369960000000     0.734790000000    -0.174742   
N32      N      0.422910000000     0.418850000000     0.716500000000    -0.175033   
N33      N      0.127330000000     0.632070000000     0.190010000000    -0.167505   
N34      N      0.170750000000     0.619350000000     0.225670000000    -0.167217   
N35      N      0.173750000000     0.674150000000     0.472250000000    -0.176278   
N36      N      0.187450000000     0.628620000000     0.498280000000    -0.174923   
N37      N      0.173760000000     0.895660000000     0.175440000000    -0.17264    
N38      N      0.162340000000     0.847890000000     0.197290000000    -0.172741   
N39      N      0.370500000000     0.632210000000     0.189870000000    -0.171908   
N40      N      0.415150000000     0.645690000000     0.156420000000    -0.170991   
N41      N      0.412450000000     0.847430000000     0.445790000000    -0.170518   
N42      N      0.397020000000     0.892280000000     0.473370000000    -0.168984   
N43      N      0.435360000000     0.618830000000     0.388100000000    -0.174113   
N44      N      0.419120000000     0.577730000000     0.421240000000    -0.174803   
N45      N      0.135700000000     0.876480000000     0.458480000000    -0.170322   
N46      N      0.178260000000     0.889970000000     0.422360000000    -0.169055   
N47      N      0.435070000000     0.869960000000     0.234790000000    -0.17472    
N48      N      0.422910000000     0.918850000000     0.216490000000    -0.17502    
N49      N      0.127330000000     0.632070000000     0.690010000000    -0.167508   
N50      N      0.170750000000     0.619350000000     0.725670000000    -0.167219   
N51      N      0.173750000000     0.674150000000     0.972240000000    -0.176323   
N52      N      0.187450000000     0.628620000000     0.998270000000    -0.174975   
N53      N      0.173760000000     0.895660000000     0.675440000000    -0.17262    
N54      N      0.162340000000     0.847890000000     0.697290000000    -0.172776   
N55      N      0.370500000000     0.632210000000     0.689860000000    -0.171871   
N56      N      0.415150000000     0.645690000000     0.656420000000    -0.170993   
N57      N      0.412450000000     0.847430000000     0.945790000000    -0.170522   
N58      N      0.397020000000     0.892280000000     0.973370000000    -0.169065   
N59      N      0.435360000000     0.618830000000     0.888100000000    -0.17411    
N60      N      0.419120000000     0.577730000000     0.921240000000    -0.174788   
N61      N      0.135700000000     0.876480000000     0.958480000000    -0.170284   
N62      N      0.178260000000     0.889970000000     0.922360000000    -0.169064   
N63      N      0.435070000000     0.869960000000     0.734790000000    -0.174722   
N64      N      0.422910000000     0.918850000000     0.716500000000    -0.174991   
N65      N      0.627330000000     0.132070000000     0.190010000000    -0.167563   
N66      N      0.670740000000     0.119350000000     0.225670000000    -0.167168   
N67      N      0.673750000000     0.174150000000     0.472250000000    -0.176312   
N68      N      0.687450000000     0.128620000000     0.498280000000    -0.174929   
N69      N      0.673750000000     0.395670000000     0.175440000000    -0.172768   
N70      N      0.662340000000     0.347890000000     0.197290000000    -0.172754   
N71      N      0.870500000000     0.132210000000     0.189870000000    -0.171893   
N72      N      0.915150000000     0.145690000000     0.156420000000    -0.171025   
N73      N      0.912450000000     0.347430000000     0.445790000000    -0.170535   
N74      N      0.897020000000     0.392280000000     0.473370000000    -0.169017   
N75      N      0.935360000000     0.118830000000     0.388100000000    -0.17414    
N76      N      0.919120000000     0.077730000000     0.421240000000    -0.174829   
N77      N      0.635700000000     0.376470000000     0.458480000000    -0.17034    
N78      N      0.678250000000     0.389960000000     0.422360000000    -0.16903    
N79      N      0.935070000000     0.369960000000     0.234790000000    -0.174739   
N80      N      0.922910000000     0.418850000000     0.216490000000    -0.175054   
N81      N      0.627330000000     0.132070000000     0.690010000000    -0.167567   
N82      N      0.670740000000     0.119350000000     0.725670000000    -0.16717    
N83      N      0.673750000000     0.174150000000     0.972240000000    -0.176357   
N84      N      0.687450000000     0.128620000000     0.998270000000    -0.174982   
N85      N      0.673750000000     0.395670000000     0.675440000000    -0.172748   
N86      N      0.662340000000     0.347890000000     0.697290000000    -0.172789   
N87      N      0.870500000000     0.132210000000     0.689860000000    -0.171856   
N88      N      0.915150000000     0.145690000000     0.656420000000    -0.171017   
N89      N      0.912450000000     0.347430000000     0.945790000000    -0.170539   
N90      N      0.897020000000     0.392280000000     0.973370000000    -0.169097   
N91      N      0.935360000000     0.118830000000     0.888100000000    -0.174137   
N92      N      0.919120000000     0.077730000000     0.921240000000    -0.174814   
N93      N      0.635700000000     0.376470000000     0.958480000000    -0.170302   
N94      N      0.678250000000     0.389960000000     0.922360000000    -0.169039   
N95      N      0.935070000000     0.369960000000     0.734790000000    -0.174741   
N96      N      0.922910000000     0.418850000000     0.716500000000    -0.175026   
N97      N      0.627330000000     0.632070000000     0.190010000000    -0.167496   
N98      N      0.670740000000     0.619350000000     0.225670000000    -0.167165   
N99      N      0.673750000000     0.674150000000     0.472250000000    -0.176276   
N100     N      0.687450000000     0.628620000000     0.498280000000    -0.174921   
N101     N      0.673750000000     0.895660000000     0.175440000000    -0.172653   
N102     N      0.662340000000     0.847890000000     0.197290000000    -0.172733   
N103     N      0.870500000000     0.632210000000     0.189870000000    -0.171906   
N104     N      0.915150000000     0.645690000000     0.156420000000    -0.170986   
N105     N      0.912450000000     0.847430000000     0.445790000000    -0.170517   
N106     N      0.897020000000     0.892280000000     0.473370000000    -0.168979   
N107     N      0.935360000000     0.618830000000     0.388100000000    -0.174128   
N108     N      0.919120000000     0.577730000000     0.421240000000    -0.174797   
N109     N      0.635700000000     0.876480000000     0.458480000000    -0.170315   
N110     N      0.678250000000     0.889970000000     0.422360000000    -0.169002   
N111     N      0.935070000000     0.869960000000     0.234790000000    -0.174719   
N112     N      0.922910000000     0.918850000000     0.216490000000    -0.175013   
N113     N      0.627330000000     0.632070000000     0.690010000000    -0.167499   
N114     N      0.670740000000     0.619350000000     0.725670000000    -0.167167   
N115     N      0.673750000000     0.674150000000     0.972240000000    -0.176321   
N116     N      0.687450000000     0.628620000000     0.998270000000    -0.174974   
N117     N      0.673750000000     0.895660000000     0.675440000000    -0.172632   
N118     N      0.662340000000     0.847890000000     0.697290000000    -0.172767   
N119     N      0.870500000000     0.632210000000     0.689860000000    -0.171869   
N120     N      0.915150000000     0.645690000000     0.656420000000    -0.170989   
N121     N      0.912450000000     0.847430000000     0.945790000000    -0.170521   
N122     N      0.897020000000     0.892280000000     0.973370000000    -0.16906    
N123     N      0.935360000000     0.618830000000     0.888100000000    -0.174109   
N124     N      0.919120000000     0.577730000000     0.921240000000    -0.174782   
N125     N      0.635700000000     0.876480000000     0.958480000000    -0.170277   
N126     N      0.678250000000     0.889970000000     0.922360000000    -0.16901    
N127     N      0.935070000000     0.869960000000     0.734790000000    -0.174721   
N128     N      0.922910000000     0.918850000000     0.716500000000    -0.174984   
O1       O      0.475060000000     0.399680000000     0.525430000000    -0.341954   
O2       O      0.100170000000     0.113300000000     0.518350000000    -0.360177   
O3       O      0.424430000000     0.033500000000     0.502690000000    -0.355791   
O4       O      0.133460000000     0.451720000000     0.509420000000    -0.341865   
O5       O      0.488680000000     0.088730000000     0.482090000000    -0.368212   
O6       O      0.074580000000     0.390470000000     0.526570000000    -0.357543   
O7       O      0.162630000000     0.056570000000     0.540380000000    -0.362816   
O8       O      0.412630000000     0.459320000000     0.530310000000    -0.341819   
O9       O      0.091880000000     0.403270000000     0.131040000000    -0.353268   
O10      O      0.482760000000     0.125320000000     0.096120000000    -0.353946   
O11      O      0.432190000000     0.480220000000     0.151030000000    -0.376853   
O12      O      0.129360000000     0.057920000000     0.136940000000    -0.340049   
O13      O      0.069380000000     0.117590000000     0.117580000000    -0.350847   
O14      O      0.485820000000     0.413350000000     0.147390000000    -0.380892   
O15      O      0.154240000000     0.462900000000     0.122360000000    -0.370603   
O16      O      0.426200000000     0.065620000000     0.124550000000    -0.361211   
O17      O      0.532760000000     0.503380000000     0.546930000000    -0.587457   
O18      O      0.351990000000     0.358750000000     0.272090000000    -0.368769   
O19      O      0.235680000000     0.135350000000     0.289980000000    -0.349866   
O20      O      0.378020000000     0.201640000000     0.246200000000    -0.366452   
O21      O      0.176610000000     0.285180000000     0.258780000000    -0.377487   
O22      O      0.316820000000     0.143430000000     0.266560000000    -0.354625   
O23      O      0.236950000000     0.347080000000     0.254970000000    -0.362164   
O24      O      0.179430000000     0.197820000000     0.269590000000    -0.34061    
O25      O      0.411730000000     0.296470000000     0.274490000000    -0.368123   
O26      O      0.243170000000     0.371610000000     0.359100000000    -0.354183   
O27      O      0.348880000000     0.139890000000     0.371320000000    -0.362961   
O28      O      0.400060000000     0.285460000000     0.380660000000    -0.353818   
O29      O      0.179380000000     0.225810000000     0.397180000000    -0.369643   
O30      O      0.240450000000     0.165300000000     0.407490000000    -0.369543   
O31      O      0.342310000000     0.349270000000     0.381940000000    -0.341454   
O32      O      0.183280000000     0.311830000000     0.378590000000    -0.331588   
O33      O      0.414490000000     0.190210000000     0.341510000000    -0.35602    
O34      O      0.289790000000     0.253120000000     0.346270000000    -0.589133   
O35      O      0.475060000000     0.399680000000     0.025430000000    -0.341943   
O36      O      0.100170000000     0.113300000000     0.018350000000    -0.360175   
O37      O      0.424430000000     0.033500000000     0.002690000000    -0.355668   
O38      O      0.133460000000     0.451720000000     0.009420000000    -0.341687   
O39      O      0.488680000000     0.088730000000     0.982090000000    -0.368308   
O40      O      0.074580000000     0.390470000000     0.026570000000    -0.357367   
O41      O      0.162630000000     0.056570000000     0.040380000000    -0.36281    
O42      O      0.412630000000     0.459320000000     0.030310000000    -0.341821   
O43      O      0.091880000000     0.403270000000     0.631040000000    -0.353293   
O44      O      0.482760000000     0.125320000000     0.596120000000    -0.353979   
O45      O      0.432190000000     0.480220000000     0.651030000000    -0.376842   
O46      O      0.129360000000     0.057920000000     0.636940000000    -0.340054   
O47      O      0.069380000000     0.117590000000     0.617580000000    -0.350884   
O48      O      0.485820000000     0.413350000000     0.647390000000    -0.380882   
O49      O      0.154240000000     0.462900000000     0.622360000000    -0.37064    
O50      O      0.426200000000     0.065620000000     0.624550000000    -0.36122    
O51      O      0.532760000000     0.503380000000     0.046930000000    -0.587452   
O52      O      0.351990000000     0.358750000000     0.772090000000    -0.368774   
O53      O      0.235680000000     0.135350000000     0.789980000000    -0.349867   
O54      O      0.378020000000     0.201640000000     0.746200000000    -0.366444   
O55      O      0.176610000000     0.285180000000     0.758770000000    -0.377448   
O56      O      0.316820000000     0.143430000000     0.766560000000    -0.354622   
O57      O      0.236950000000     0.347080000000     0.754970000000    -0.362151   
O58      O      0.179430000000     0.197820000000     0.769590000000    -0.34061    
O59      O      0.411730000000     0.296470000000     0.774490000000    -0.368126   
O60      O      0.243170000000     0.371610000000     0.859100000000    -0.354191   
O61      O      0.348880000000     0.139890000000     0.871330000000    -0.362935   
O62      O      0.400060000000     0.285460000000     0.880660000000    -0.353822   
O63      O      0.179380000000     0.225810000000     0.897180000000    -0.369655   
O64      O      0.240450000000     0.165300000000     0.907490000000    -0.369559   
O65      O      0.342310000000     0.349270000000     0.881940000000    -0.341456   
O66      O      0.183280000000     0.311830000000     0.878600000000    -0.331572   
O67      O      0.414490000000     0.190210000000     0.841510000000    -0.356052   
O68      O      0.289790000000     0.253120000000     0.846270000000    -0.589125   
O69      O      0.475060000000     0.899680000000     0.525430000000    -0.341906   
O70      O      0.100170000000     0.613300000000     0.518350000000    -0.360149   
O71      O      0.424430000000     0.533500000000     0.502690000000    -0.355638   
O72      O      0.133460000000     0.951720000000     0.509420000000    -0.341371   
O73      O      0.488680000000     0.588730000000     0.482090000000    -0.368168   
O74      O      0.074580000000     0.890480000000     0.526570000000    -0.357635   
O75      O      0.162630000000     0.556570000000     0.540380000000    -0.362769   
O76      O      0.412630000000     0.959320000000     0.530310000000    -0.341219   
O77      O      0.091880000000     0.903260000000     0.131040000000    -0.353135   
O78      O      0.482760000000     0.625330000000     0.096120000000    -0.353859   
O79      O      0.432190000000     0.980220000000     0.151030000000    -0.376211   
O80      O      0.129360000000     0.557910000000     0.136940000000    -0.339971   
O81      O      0.069380000000     0.617590000000     0.117580000000    -0.350781   
O82      O      0.485820000000     0.913350000000     0.147390000000    -0.380864   
O83      O      0.154240000000     0.962900000000     0.122360000000    -0.369963   
O84      O      0.426200000000     0.565620000000     0.124550000000    -0.361114   
O85      O      0.532760000000     0.003390000000     0.546930000000    -0.587713   
O86      O      0.351990000000     0.858750000000     0.272090000000    -0.368722   
O87      O      0.235680000000     0.635350000000     0.289980000000    -0.3498     
O88      O      0.378020000000     0.701630000000     0.246200000000    -0.366481   
O89      O      0.176610000000     0.785180000000     0.258780000000    -0.377485   
O90      O      0.316820000000     0.643430000000     0.266560000000    -0.354607   
O91      O      0.236950000000     0.847080000000     0.254970000000    -0.36212    
O92      O      0.179430000000     0.697820000000     0.269590000000    -0.340611   
O93      O      0.411730000000     0.796470000000     0.274490000000    -0.368155   
O94      O      0.243170000000     0.871610000000     0.359100000000    -0.354061   
O95      O      0.348880000000     0.639890000000     0.371320000000    -0.362905   
O96      O      0.400060000000     0.785460000000     0.380660000000    -0.353835   
O97      O      0.179380000000     0.725810000000     0.397180000000    -0.369632   
O98      O      0.240450000000     0.665300000000     0.407490000000    -0.369506   
O99      O      0.342310000000     0.849270000000     0.381940000000    -0.34141    
O100     O      0.183280000000     0.811820000000     0.378590000000    -0.331515   
O101     O      0.414490000000     0.690210000000     0.341510000000    -0.355996   
O102     O      0.289790000000     0.753120000000     0.346270000000    -0.589148   
O103     O      0.475060000000     0.899680000000     0.025430000000    -0.341895   
O104     O      0.100170000000     0.613300000000     0.018350000000    -0.360145   
O105     O      0.424430000000     0.533500000000     0.002690000000    -0.355514   
O106     O      0.133460000000     0.951720000000     0.009420000000    -0.3412     
O107     O      0.488680000000     0.588730000000     0.982090000000    -0.368266   
O108     O      0.074580000000     0.890480000000     0.026570000000    -0.357466   
O109     O      0.162630000000     0.556570000000     0.040380000000    -0.362757   
O110     O      0.412630000000     0.959320000000     0.030310000000    -0.341221   
O111     O      0.091880000000     0.903260000000     0.631040000000    -0.353162   
O112     O      0.482760000000     0.625330000000     0.596120000000    -0.353892   
O113     O      0.432190000000     0.980220000000     0.651030000000    -0.376201   
O114     O      0.129360000000     0.557910000000     0.636940000000    -0.339976   
O115     O      0.069380000000     0.617590000000     0.617580000000    -0.350812   
O116     O      0.485820000000     0.913350000000     0.647390000000    -0.380853   
O117     O      0.154240000000     0.962900000000     0.622360000000    -0.370004   
O118     O      0.426200000000     0.565620000000     0.624550000000    -0.361124   
O119     O      0.532760000000     0.003390000000     0.046930000000    -0.587708   
O120     O      0.351990000000     0.858750000000     0.772090000000    -0.368725   
O121     O      0.235680000000     0.635350000000     0.789980000000    -0.349802   
O122     O      0.378020000000     0.701630000000     0.746200000000    -0.366471   
O123     O      0.176610000000     0.785180000000     0.758770000000    -0.377445   
O124     O      0.316820000000     0.643430000000     0.766560000000    -0.354601   
O125     O      0.236950000000     0.847080000000     0.754970000000    -0.362106   
O126     O      0.179430000000     0.697820000000     0.769590000000    -0.34061    
O127     O      0.411730000000     0.796470000000     0.774490000000    -0.368158   
O128     O      0.243170000000     0.871610000000     0.859100000000    -0.354069   
O129     O      0.348880000000     0.639890000000     0.871330000000    -0.362881   
O130     O      0.400060000000     0.785460000000     0.880660000000    -0.353842   
O131     O      0.179380000000     0.725810000000     0.897180000000    -0.369644   
O132     O      0.240450000000     0.665300000000     0.907490000000    -0.369523   
O133     O      0.342310000000     0.849270000000     0.881940000000    -0.341412   
O134     O      0.183280000000     0.811820000000     0.878600000000    -0.331499   
O135     O      0.414490000000     0.690210000000     0.841510000000    -0.355995   
O136     O      0.289790000000     0.753120000000     0.846270000000    -0.58914    
O137     O      0.975060000000     0.399680000000     0.525430000000    -0.34189    
O138     O      0.600170000000     0.113300000000     0.518350000000    -0.360174   
O139     O      0.924430000000     0.033500000000     0.502690000000    -0.355787   
O140     O      0.633460000000     0.451720000000     0.509420000000    -0.341855   
O141     O      0.988680000000     0.088730000000     0.482090000000    -0.368132   
O142     O      0.574580000000     0.390470000000     0.526570000000    -0.357522   
O143     O      0.662630000000     0.056570000000     0.540380000000    -0.362817   
O144     O      0.912630000000     0.459320000000     0.530310000000    -0.341827   
O145     O      0.591890000000     0.403270000000     0.131040000000    -0.353315   
O146     O      0.982760000000     0.125320000000     0.096120000000    -0.353868   
O147     O      0.932190000000     0.480220000000     0.151030000000    -0.376848   
O148     O      0.629360000000     0.057920000000     0.136940000000    -0.340045   
O149     O      0.569380000000     0.117590000000     0.117580000000    -0.350828   
O150     O      0.985820000000     0.413350000000     0.147390000000    -0.380815   
O151     O      0.654240000000     0.462900000000     0.122360000000    -0.370634   
O152     O      0.926200000000     0.065620000000     0.124550000000    -0.361208   
O153     O      0.032760000000     0.503380000000     0.546940000000    -0.587554   
O154     O      0.851990000000     0.358750000000     0.272090000000    -0.36877    
O155     O      0.735680000000     0.135350000000     0.289980000000    -0.349853   
O156     O      0.878020000000     0.201640000000     0.246200000000    -0.366456   
O157     O      0.676610000000     0.285180000000     0.258780000000    -0.377469   
O158     O      0.816820000000     0.143430000000     0.266560000000    -0.354629   
O159     O      0.736950000000     0.347080000000     0.254970000000    -0.362162   
O160     O      0.679430000000     0.197820000000     0.269590000000    -0.340584   
O161     O      0.911730000000     0.296470000000     0.274490000000    -0.36812    
O162     O      0.743170000000     0.371610000000     0.359100000000    -0.354172   
O163     O      0.848880000000     0.139890000000     0.371320000000    -0.362957   
O164     O      0.900060000000     0.285460000000     0.380660000000    -0.353809   
O165     O      0.679380000000     0.225810000000     0.397180000000    -0.369628   
O166     O      0.740450000000     0.165300000000     0.407490000000    -0.36954    
O167     O      0.842310000000     0.349270000000     0.381940000000    -0.341453   
O168     O      0.683280000000     0.311830000000     0.378590000000    -0.331564   
O169     O      0.914490000000     0.190210000000     0.341510000000    -0.356048   
O170     O      0.789800000000     0.253120000000     0.346270000000    -0.589132   
O171     O      0.975060000000     0.399680000000     0.025430000000    -0.341872   
O172     O      0.600170000000     0.113300000000     0.018350000000    -0.360173   
O173     O      0.924430000000     0.033500000000     0.002690000000    -0.355665   
O174     O      0.633460000000     0.451720000000     0.009420000000    -0.341684   
O175     O      0.988680000000     0.088730000000     0.982090000000    -0.368232   
O176     O      0.574580000000     0.390470000000     0.026570000000    -0.357353   
O177     O      0.662630000000     0.056570000000     0.040380000000    -0.362811   
O178     O      0.912630000000     0.459320000000     0.030310000000    -0.341822   
O179     O      0.591890000000     0.403270000000     0.631040000000    -0.353342   
O180     O      0.982760000000     0.125320000000     0.596110000000    -0.353877   
O181     O      0.932190000000     0.480220000000     0.651030000000    -0.376841   
O182     O      0.629360000000     0.057920000000     0.636940000000    -0.340048   
O183     O      0.569380000000     0.117590000000     0.617580000000    -0.350859   
O184     O      0.985820000000     0.413350000000     0.647390000000    -0.380809   
O185     O      0.654240000000     0.462900000000     0.622360000000    -0.370675   
O186     O      0.926200000000     0.065620000000     0.624550000000    -0.361199   
O187     O      0.032760000000     0.503380000000     0.046930000000    -0.587487   
O188     O      0.851990000000     0.358750000000     0.772090000000    -0.368774   
O189     O      0.735680000000     0.135350000000     0.789980000000    -0.349855   
O190     O      0.878020000000     0.201640000000     0.746200000000    -0.366446   
O191     O      0.676610000000     0.285180000000     0.758770000000    -0.37743    
O192     O      0.816820000000     0.143430000000     0.766560000000    -0.354623   
O193     O      0.736950000000     0.347080000000     0.754970000000    -0.362148   
O194     O      0.679430000000     0.197820000000     0.769590000000    -0.340584   
O195     O      0.911730000000     0.296470000000     0.774490000000    -0.368123   
O196     O      0.743170000000     0.371610000000     0.859100000000    -0.35418    
O197     O      0.848880000000     0.139890000000     0.871330000000    -0.362934   
O198     O      0.900060000000     0.285460000000     0.880660000000    -0.353816   
O199     O      0.679380000000     0.225810000000     0.897180000000    -0.36964    
O200     O      0.740450000000     0.165300000000     0.907490000000    -0.369558   
O201     O      0.842310000000     0.349270000000     0.881940000000    -0.341455   
O202     O      0.683280000000     0.311830000000     0.878600000000    -0.331549   
O203     O      0.914490000000     0.190210000000     0.841510000000    -0.356047   
O204     O      0.789800000000     0.253120000000     0.846270000000    -0.589124   
O205     O      0.975060000000     0.899680000000     0.525430000000    -0.341836   
O206     O      0.600170000000     0.613300000000     0.518350000000    -0.360143   
O207     O      0.924430000000     0.533500000000     0.502690000000    -0.355643   
O208     O      0.633460000000     0.951720000000     0.509420000000    -0.341368   
O209     O      0.988680000000     0.588730000000     0.482090000000    -0.3681     
O210     O      0.574580000000     0.890480000000     0.526570000000    -0.357621   
O211     O      0.662630000000     0.556570000000     0.540380000000    -0.362765   
O212     O      0.912630000000     0.959320000000     0.530310000000    -0.341221   
O213     O      0.591890000000     0.903260000000     0.131040000000    -0.353188   
O214     O      0.982760000000     0.625330000000     0.096120000000    -0.353782   
O215     O      0.932190000000     0.980220000000     0.151030000000    -0.376206   
O216     O      0.629360000000     0.557910000000     0.136940000000    -0.339967   
O217     O      0.569380000000     0.617590000000     0.117580000000    -0.350762   
O218     O      0.985820000000     0.913350000000     0.147390000000    -0.380787   
O219     O      0.654240000000     0.962900000000     0.122360000000    -0.370004   
O220     O      0.926200000000     0.565620000000     0.124550000000    -0.361111   
O221     O      0.032760000000     0.003390000000     0.546930000000    -0.58775    
O222     O      0.851990000000     0.858750000000     0.272090000000    -0.368722   
O223     O      0.735680000000     0.635350000000     0.289980000000    -0.349788   
O224     O      0.878020000000     0.701630000000     0.246200000000    -0.366481   
O225     O      0.676610000000     0.785180000000     0.258780000000    -0.377466   
O226     O      0.816820000000     0.643430000000     0.266560000000    -0.354606   
O227     O      0.736950000000     0.847080000000     0.254970000000    -0.362117   
O228     O      0.679430000000     0.697820000000     0.269590000000    -0.340585   
O229     O      0.911730000000     0.796470000000     0.274490000000    -0.368153   
O230     O      0.743170000000     0.871610000000     0.359100000000    -0.35405    
O231     O      0.848880000000     0.639890000000     0.371320000000    -0.362906   
O232     O      0.900060000000     0.785460000000     0.380660000000    -0.353832   
O233     O      0.679380000000     0.725810000000     0.397180000000    -0.369617   
O234     O      0.740450000000     0.665300000000     0.407490000000    -0.369506   
O235     O      0.842310000000     0.849270000000     0.381940000000    -0.341409   
O236     O      0.683280000000     0.811820000000     0.378590000000    -0.331491   
O237     O      0.914490000000     0.690210000000     0.341510000000    -0.355958   
O238     O      0.789800000000     0.753120000000     0.346270000000    -0.589147   
O239     O      0.975060000000     0.899680000000     0.025430000000    -0.341824   
O240     O      0.600170000000     0.613300000000     0.018350000000    -0.360142   
O241     O      0.924430000000     0.533500000000     0.002690000000    -0.355512   
O242     O      0.633460000000     0.951720000000     0.009420000000    -0.341197   
O243     O      0.988680000000     0.588730000000     0.982090000000    -0.36819    
O244     O      0.574580000000     0.890480000000     0.026570000000    -0.357452   
O245     O      0.662630000000     0.556570000000     0.040380000000    -0.362759   
O246     O      0.912630000000     0.959320000000     0.030310000000    -0.341223   
O247     O      0.591890000000     0.903260000000     0.631040000000    -0.353215   
O248     O      0.982760000000     0.625330000000     0.596120000000    -0.353817   
O249     O      0.932190000000     0.980220000000     0.651030000000    -0.376197   
O250     O      0.629360000000     0.557910000000     0.636940000000    -0.339971   
O251     O      0.569380000000     0.617590000000     0.617580000000    -0.350793   
O252     O      0.985820000000     0.913350000000     0.647390000000    -0.380776   
O253     O      0.654240000000     0.962900000000     0.622360000000    -0.370045   
O254     O      0.926200000000     0.565620000000     0.624550000000    -0.361124   
O255     O      0.032760000000     0.003390000000     0.046930000000    -0.587743   
O256     O      0.851990000000     0.858750000000     0.772090000000    -0.368726   
O257     O      0.735680000000     0.635350000000     0.789980000000    -0.349789   
O258     O      0.878020000000     0.701630000000     0.746200000000    -0.366473   
O259     O      0.676610000000     0.785180000000     0.758770000000    -0.377427   
O260     O      0.816820000000     0.643430000000     0.766560000000    -0.354602   
O261     O      0.736950000000     0.847080000000     0.754970000000    -0.362104   
O262     O      0.679430000000     0.697820000000     0.769590000000    -0.340584   
O263     O      0.911730000000     0.796470000000     0.774490000000    -0.368155   
O264     O      0.743170000000     0.871610000000     0.859100000000    -0.354058   
O265     O      0.848880000000     0.639890000000     0.871330000000    -0.362881   
O266     O      0.900060000000     0.785460000000     0.880660000000    -0.353836   
O267     O      0.679380000000     0.725810000000     0.897180000000    -0.369629   
O268     O      0.740450000000     0.665300000000     0.907490000000    -0.369522   
O269     O      0.842310000000     0.849270000000     0.881940000000    -0.341412   
O270     O      0.683280000000     0.811820000000     0.878600000000    -0.331476   
O271     O      0.914490000000     0.690210000000     0.841510000000    -0.35599    
O272     O      0.789800000000     0.753120000000     0.846270000000    -0.589139   


