data_structure

_audit_creation_method RASPA-1.0
_audit_creation_date 2023-5-9
_audit_author_name 'Poobodin Mano'

_cell_length_a    32.609
_cell_length_b    31.897
_cell_length_c    31.2179
_cell_angle_alpha 90
_cell_angle_beta  90
_cell_angle_gamma 90
_cell_volume      32470.7

_symmetry_cell_setting          triclinic
_symmetry_space_group_name_Hall 'P 1'
_symmetry_space_group_name_H-M  'P 1'
_symmetry_Int_Tables_number     1

_symmetry_equiv_pos_as_xyz 'x,y,z'

loop_
_atom_site_label
_atom_site_type_symbol
_atom_site_fract_x
_atom_site_fract_y
_atom_site_fract_z
_atom_site_charge
C1       C      0.556070000000     0.175600000000     0.284100000000     0.403016   
C2       C      0.116930000000     0.553050000000     0.431550000000     0.413132   
C3       C      0.519160000000     0.162960000000     0.409540000000     0.414159   
C4       C      0.154520000000     0.568010000000     0.298710000000     0.410414   
C5       C      0.091500000000     0.497390000000     0.257340000000     0.415439   
C6       C      0.442180000000     0.075560000000     0.392040000000     0.409608   
C7       C      0.485890000000     0.071240000000     0.248100000000     0.418923   
C8       C      0.035350000000     0.480780000000     0.411920000000     0.42287    
C9       C      0.056850000000     0.260370000000     0.172820000000     0.40702    
C10      C      0.458460000000     0.384670000000     0.569250000000     0.412387   
C11      C      0.078460000000     0.430440000000     0.135830000000     0.415116   
C12      C      0.500250000000     0.214110000000     0.565790000000     0.419174   
C13      C      0.559230000000     0.265930000000     0.486470000000     0.409821   
C14      C      0.141460000000     0.387560000000     0.065960000000     0.405646   
C15      C      0.158280000000     0.271360000000     0.119200000000     0.410794   
C16      C      0.511150000000     0.362380000000     0.476130000000     0.41213    
C17      C      0.388140000000     0.032780000000     0.162670000000     0.420481   
C18      C      0.233700000000     0.486200000000     0.586510000000     0.413347   
C19      C      0.263950000000     0.093150000000     0.200510000000     0.41554    
C20      C      0.373480000000     0.481150000000     0.527720000000     0.412163   
C21      C      0.355280000000     0.588890000000     0.487440000000     0.408122   
C22      C      0.266900000000     0.166260000000     0.119040000000     0.409794   
C23      C      0.419570000000     0.124380000000     0.122790000000     0.415892   
C24      C      0.226810000000     0.583490000000     0.516140000000     0.407828   
C25      C      0.390540000000     0.408000000000     0.543160000000     0.0713467  
C26      C      0.489370000000     0.146770000000     0.102900000000     0.077269   
C27      C      0.213050000000     0.411450000000     0.572180000000     0.0772293  
C28      C      0.211690000000     0.218120000000     0.103750000000     0.0734052  
C29      C      0.368240000000     0.090470000000     0.408270000000     0.0749727  
C30      C      0.156190000000     0.590390000000     0.488520000000     0.0740645  
C31      C      0.204410000000     0.598780000000     0.249900000000     0.076519   
C32      C      0.425360000000     0.027950000000     0.230270000000     0.0795023  
C33      C      0.537500000000     0.237950000000     0.416780000000     0.0789939  
C34      C      0.030690000000     0.403990000000     0.413130000000     0.0841651  
C35      C      0.115910000000     0.478080000000     0.184790000000     0.0842106  
C36      C      0.543230000000     0.246210000000     0.251150000000     0.0730072  
C37      C      0.556040000000     0.175710000000     0.783710000000     0.403161   
C38      C      0.117810000000     0.553210000000     0.931150000000     0.41316    
C39      C      0.519730000000     0.162880000000     0.909770000000     0.414113   
C40      C      0.154770000000     0.568700000000     0.798050000000     0.410207   
C41      C      0.091600000000     0.497540000000     0.756980000000     0.41565    
C42      C      0.442800000000     0.075700000000     0.892520000000     0.409849   
C43      C      0.485610000000     0.071670000000     0.748210000000     0.419098   
C44      C      0.036580000000     0.480740000000     0.911730000000     0.422868   
C45      C      0.055880000000     0.260500000000     0.672530000000     0.407353   
C46      C      0.460070000000     0.385350000000     0.068950000000     0.412487   
C47      C      0.077180000000     0.430360000000     0.635740000000     0.415056   
C48      C      0.500440000000     0.214810000000     0.067320000000     0.419454   
C49      C      0.560080000000     0.265650000000     0.986850000000     0.4101     
C50      C      0.139880000000     0.388150000000     0.565520000000     0.405517   
C51      C      0.157390000000     0.271370000000     0.618590000000     0.410314   
C52      C      0.512960000000     0.362260000000     0.976040000000     0.412143   
C53      C      0.387510000000     0.033280000000     0.662730000000     0.420325   
C54      C      0.234340000000     0.486280000000     0.086880000000     0.413294   
C55      C      0.263840000000     0.094250000000     0.699960000000     0.415545   
C56      C      0.374750000000     0.482150000000     0.027730000000     0.412262   
C57      C      0.355600000000     0.589310000000     0.987730000000     0.408335   
C58      C      0.266190000000     0.166340000000     0.618140000000     0.409499   
C59      C      0.419320000000     0.124270000000     0.621070000000     0.416284   
C60      C      0.227560000000     0.583490000000     0.016230000000     0.407907   
C61      C      0.392330000000     0.409040000000     0.042660000000     0.0715565  
C62      C      0.489130000000     0.145720000000     0.600500000000     0.0775061  
C63      C      0.214400000000     0.411250000000     0.073230000000     0.0776575  
C64      C      0.210640000000     0.217940000000     0.603190000000     0.073267   
C65      C      0.368780000000     0.090530000000     0.908600000000     0.0750461  
C66      C      0.157030000000     0.590350000000     0.988310000000     0.0740637  
C67      C      0.204540000000     0.600400000000     0.749680000000     0.0765987  
C68      C      0.424520000000     0.029150000000     0.730540000000     0.0795537  
C69      C      0.538190000000     0.237810000000     0.917160000000     0.0790302  
C70      C      0.032560000000     0.403910000000     0.913080000000     0.0841622  
C71      C      0.115140000000     0.478100000000     0.684150000000     0.0842055  
C72      C      0.542790000000     0.246300000000     0.750930000000     0.0731552  
C73      C      0.556130000000     0.675700000000     0.284040000000     0.402627   
C74      C      0.116230000000     0.052570000000     0.431570000000     0.413278   
C75      C      0.519580000000     0.663050000000     0.409660000000     0.414043   
C76      C      0.154300000000     0.066750000000     0.299250000000     0.410633   
C77      C      0.091010000000     0.997220000000     0.257350000000     0.414612   
C78      C      0.442740000000     0.575670000000     0.392590000000     0.409606   
C79      C      0.485620000000     0.570980000000     0.248550000000     0.419077   
C80      C      0.034210000000     0.980670000000     0.412080000000     0.422462   
C81      C      0.056630000000     0.760480000000     0.172920000000     0.406937   
C82      C      0.458090000000     0.884250000000     0.569760000000     0.412169   
C83      C      0.078370000000     0.930420000000     0.135720000000     0.41505    
C84      C      0.500440000000     0.713730000000     0.565820000000     0.419117   
C85      C      0.559200000000     0.766160000000     0.486610000000     0.409726   
C86      C      0.141100000000     0.887330000000     0.065640000000     0.406      
C87      C      0.158270000000     0.771460000000     0.119070000000     0.410674   
C88      C      0.510120000000     0.862330000000     0.476530000000     0.411942   
C89      C      0.387550000000     0.532850000000     0.163540000000     0.420585   
C90      C      0.233390000000     0.986110000000     0.585730000000     0.412455   
C91      C      0.264030000000     0.595260000000     0.200890000000     0.415575   
C92      C      0.373750000000     0.981090000000     0.527660000000     0.411794   
C93      C      0.354930000000     0.088840000000     0.486810000000     0.408718   
C94      C      0.267030000000     0.666600000000     0.118860000000     0.409767   
C95      C      0.419930000000     0.624180000000     0.123050000000     0.415919   
C96      C      0.226750000000     0.082960000000     0.515290000000     0.40793    
C97      C      0.390460000000     0.907840000000     0.543280000000     0.0712728  
C98      C      0.489730000000     0.646360000000     0.102940000000     0.0772846  
C99      C      0.212630000000     0.911370000000     0.571530000000     0.0772039  
C100     C      0.211750000000     0.718360000000     0.103420000000     0.0733635  
C101     C      0.368820000000     0.590500000000     0.409020000000     0.0751266  
C102     C      0.156010000000     0.090130000000     0.487970000000     0.0740902  
C103     C      0.204270000000     0.095420000000     0.249310000000     0.0762508  
C104     C      0.424660000000     0.528090000000     0.231220000000     0.0795874  
C105     C      0.537610000000     0.738130000000     0.416910000000     0.0790074  
C106     C      0.029150000000     0.903930000000     0.413360000000     0.0842393  
C107     C      0.115670000000     0.978070000000     0.184820000000     0.0834759  
C108     C      0.543160000000     0.746350000000     0.251280000000     0.0730253  
C109     C      0.556120000000     0.675820000000     0.783660000000     0.402538   
C110     C      0.117080000000     0.052730000000     0.931190000000     0.413191   
C111     C      0.520170000000     0.662970000000     0.909880000000     0.41418    
C112     C      0.154530000000     0.067520000000     0.798590000000     0.410572   
C113     C      0.091140000000     0.997370000000     0.757000000000     0.414837   
C114     C      0.443380000000     0.575810000000     0.893050000000     0.40972    
C115     C      0.485380000000     0.571440000000     0.748650000000     0.419357   
C116     C      0.035440000000     0.980620000000     0.911890000000     0.422312   
C117     C      0.055650000000     0.760620000000     0.672640000000     0.40735    
C118     C      0.459730000000     0.884940000000     0.069430000000     0.412323   
C119     C      0.077080000000     0.930340000000     0.635650000000     0.415049   
C120     C      0.500650000000     0.714410000000     0.067350000000     0.419432   
C121     C      0.560070000000     0.765880000000     0.986980000000     0.410202   
C122     C      0.139480000000     0.887940000000     0.565200000000     0.405795   
C123     C      0.157360000000     0.771450000000     0.618470000000     0.410331   
C124     C      0.511950000000     0.862190000000     0.976420000000     0.412049   
C125     C      0.386960000000     0.533370000000     0.663570000000     0.420419   
C126     C      0.234040000000     0.986160000000     0.086130000000     0.412525   
C127     C      0.263920000000     0.596250000000     0.700350000000     0.415533   
C128     C      0.375010000000     0.982100000000     0.027650000000     0.41204    
C129     C      0.355210000000     0.089260000000     0.987090000000     0.408788   
C130     C      0.266280000000     0.666650000000     0.617990000000     0.40926    
C131     C      0.419650000000     0.624090000000     0.621330000000     0.416191   
C132     C      0.227470000000     0.082940000000     0.015420000000     0.407955   
C133     C      0.392270000000     0.908880000000     0.042750000000     0.0714883  
C134     C      0.489460000000     0.645330000000     0.600540000000     0.0774648  
C135     C      0.214010000000     0.911130000000     0.072600000000     0.0776755  
C136     C      0.210660000000     0.718130000000     0.602910000000     0.073225   
C137     C      0.369380000000     0.590570000000     0.909350000000     0.0751398  
C138     C      0.156820000000     0.090070000000     0.987800000000     0.0741117  
C139     C      0.204390000000     0.097210000000     0.749100000000     0.076358   
C140     C      0.423890000000     0.529330000000     0.731440000000     0.0796216  
C141     C      0.538320000000     0.737980000000     0.917270000000     0.0789965  
C142     C      0.031040000000     0.903830000000     0.913290000000     0.0841589  
C143     C      0.114910000000     0.978090000000     0.684200000000     0.0835053  
C144     C      0.542730000000     0.746460000000     0.751060000000     0.0730188  
C145     C      0.056020000000     0.175730000000     0.283840000000     0.403183   
C146     C      0.616880000000     0.552870000000     0.431430000000     0.413295   
C147     C      0.019490000000     0.163080000000     0.409700000000     0.41394    
C148     C      0.654490000000     0.567850000000     0.298580000000     0.410218   
C149     C      0.591380000000     0.497320000000     0.257170000000     0.415431   
C150     C      0.942240000000     0.075650000000     0.392030000000     0.409864   
C151     C      0.985820000000     0.071490000000     0.248280000000     0.422125   
C152     C      0.535130000000     0.480650000000     0.411660000000     0.423121   
C153     C      0.557560000000     0.259910000000     0.172530000000     0.406951   
C154     C      0.958250000000     0.384450000000     0.569500000000     0.411994   
C155     C      0.578470000000     0.430360000000     0.135560000000     0.415201   
C156     C      0.000360000000     0.214020000000     0.565730000000     0.414264   
C157     C      0.059570000000     0.265990000000     0.486780000000     0.409634   
C158     C      0.641650000000     0.387440000000     0.065810000000     0.405965   
C159     C      0.658360000000     0.271340000000     0.118840000000     0.410817   
C160     C      0.011130000000     0.362540000000     0.476390000000     0.408766   
C161     C      0.888070000000     0.032860000000     0.162870000000     0.420454   
C162     C      0.733770000000     0.486110000000     0.586470000000     0.41322    
C163     C      0.763930000000     0.093110000000     0.200370000000     0.415514   
C164     C      0.873490000000     0.480910000000     0.527830000000     0.411889   
C165     C      0.855470000000     0.588780000000     0.487530000000     0.408035   
C166     C      0.766940000000     0.166240000000     0.118740000000     0.409947   
C167     C      0.919580000000     0.124350000000     0.122650000000     0.416131   
C168     C      0.726850000000     0.583300000000     0.515980000000     0.40791    
C169     C      0.890360000000     0.407710000000     0.543270000000     0.071383   
C170     C      0.989400000000     0.146660000000     0.102750000000     0.0800239  
C171     C      0.713200000000     0.411330000000     0.572210000000     0.0772482  
C172     C      0.711770000000     0.218130000000     0.103330000000     0.0734392  
C173     C      0.868340000000     0.090600000000     0.408350000000     0.0750409  
C174     C      0.656210000000     0.590190000000     0.488360000000     0.074103   
C175     C      0.704360000000     0.598620000000     0.249760000000     0.0764971  
C176     C      0.925220000000     0.028270000000     0.230540000000     0.079734   
C177     C      0.038110000000     0.238000000000     0.417000000000     0.0790693  
C178     C      0.530540000000     0.403870000000     0.412890000000     0.0848151  
C179     C      0.615790000000     0.478040000000     0.184610000000     0.084257   
C180     C      0.042740000000     0.246470000000     0.251430000000     0.0733764  
C181     C      0.055990000000     0.175840000000     0.783430000000     0.403114   
C182     C      0.617740000000     0.553010000000     0.931030000000     0.41331    
C183     C      0.020080000000     0.163000000000     0.909920000000     0.413758   
C184     C      0.654720000000     0.568540000000     0.797920000000     0.410301   
C185     C      0.591470000000     0.497480000000     0.756810000000     0.415758   
C186     C      0.942870000000     0.075780000000     0.892500000000     0.409594   
C187     C      0.985540000000     0.071900000000     0.748390000000     0.421855   
C188     C      0.536340000000     0.480600000000     0.911470000000     0.423191   
C189     C      0.556610000000     0.260030000000     0.672230000000     0.407399   
C190     C      0.959850000000     0.385110000000     0.069190000000     0.412244   
C191     C      0.577180000000     0.430290000000     0.635470000000     0.415115   
C192     C      0.000560000000     0.214710000000     0.067240000000     0.414651   
C193     C      0.060430000000     0.265710000000     0.987140000000     0.40979    
C194     C      0.640050000000     0.388050000000     0.565370000000     0.405794   
C195     C      0.657460000000     0.271360000000     0.618220000000     0.410561   
C196     C      0.012920000000     0.362430000000     0.976290000000     0.409054   
C197     C      0.887430000000     0.033360000000     0.662940000000     0.420282   
C198     C      0.734410000000     0.486180000000     0.086850000000     0.413324   
C199     C      0.763810000000     0.094220000000     0.699840000000     0.415558   
C200     C      0.874760000000     0.481900000000     0.027830000000     0.412243   
C201     C      0.855780000000     0.589190000000     0.987800000000     0.408194   
C202     C      0.766220000000     0.166330000000     0.617850000000     0.409597   
C203     C      0.919320000000     0.124230000000     0.620950000000     0.416419   
C204     C      0.727590000000     0.583270000000     0.016070000000     0.407833   
C205     C      0.892140000000     0.408720000000     0.042760000000     0.0715211  
C206     C      0.989150000000     0.145620000000     0.600360000000     0.0802105  
C207     C      0.714560000000     0.411120000000     0.073270000000     0.0777878  
C208     C      0.710720000000     0.217950000000     0.602780000000     0.0733064  
C209     C      0.868880000000     0.090640000000     0.908660000000     0.0750256  
C210     C      0.657050000000     0.590130000000     0.988150000000     0.0740372  
C211     C      0.704500000000     0.600240000000     0.749550000000     0.0765966  
C212     C      0.924380000000     0.029470000000     0.730820000000     0.0797372  
C213     C      0.038810000000     0.237860000000     0.917350000000     0.0790106  
C214     C      0.532410000000     0.403770000000     0.912850000000     0.0847735  
C215     C      0.615000000000     0.478070000000     0.683970000000     0.0842623  
C216     C      0.042300000000     0.246570000000     0.751210000000     0.0734415  
C217     C      0.056070000000     0.675830000000     0.283750000000     0.402563   
C218     C      0.616200000000     0.052420000000     0.431450000000     0.413293   
C219     C      0.019880000000     0.663160000000     0.409810000000     0.413626   
C220     C      0.654280000000     0.066620000000     0.299120000000     0.410546   
C221     C      0.590930000000     0.997150000000     0.257190000000     0.414625   
C222     C      0.942820000000     0.575740000000     0.392570000000     0.409576   
C223     C      0.985570000000     0.571200000000     0.248720000000     0.421884   
C224     C      0.534030000000     0.980540000000     0.411830000000     0.42258    
C225     C      0.557380000000     0.760010000000     0.172640000000     0.407158   
C226     C      0.957870000000     0.884030000000     0.569990000000     0.411985   
C227     C      0.578400000000     0.930340000000     0.135470000000     0.415364   
C228     C      0.000520000000     0.713630000000     0.565770000000     0.414263   
C229     C      0.059510000000     0.766200000000     0.486910000000     0.409663   
C230     C      0.641300000000     0.887230000000     0.065500000000     0.406204   
C231     C      0.658370000000     0.771440000000     0.118710000000     0.410787   
C232     C      0.010050000000     0.862480000000     0.476780000000     0.408843   
C233     C      0.887500000000     0.532910000000     0.163730000000     0.420613   
C234     C      0.733470000000     0.986040000000     0.585700000000     0.412652   
C235     C      0.763990000000     0.595180000000     0.200750000000     0.415603   
C236     C      0.873740000000     0.980860000000     0.527760000000     0.411704   
C237     C      0.855120000000     0.088760000000     0.486910000000     0.408513   
C238     C      0.767070000000     0.666560000000     0.118570000000     0.409937   
C239     C      0.919930000000     0.624120000000     0.122920000000     0.416009   
C240     C      0.726790000000     0.082800000000     0.515150000000     0.408041   
C241     C      0.890270000000     0.907570000000     0.543380000000     0.0713485  
C242     C      0.989750000000     0.646240000000     0.102800000000     0.0799521  
C243     C      0.712800000000     0.911270000000     0.571570000000     0.0771686  
C244     C      0.711850000000     0.718350000000     0.103010000000     0.0733777  
C245     C      0.868920000000     0.590600000000     0.409090000000     0.0751074  
C246     C      0.656030000000     0.089960000000     0.487820000000     0.0740403  
C247     C      0.704240000000     0.095310000000     0.249180000000     0.0762753  
C248     C      0.924540000000     0.528380000000     0.231460000000     0.079773   
C249     C      0.038180000000     0.738180000000     0.417110000000     0.0790201  
C250     C      0.529050000000     0.903810000000     0.413130000000     0.084778   
C251     C      0.615580000000     0.978020000000     0.184650000000     0.083531   
C252     C      0.042640000000     0.746610000000     0.251540000000     0.0734295  
C253     C      0.056060000000     0.675950000000     0.783350000000     0.402772   
C254     C      0.617040000000     0.052570000000     0.931080000000     0.413246   
C255     C      0.020480000000     0.663080000000     0.910010000000     0.413823   
C256     C      0.654500000000     0.067390000000     0.798460000000     0.410411   
C257     C      0.591040000000     0.997300000000     0.756850000000     0.41482    
C258     C      0.943460000000     0.575870000000     0.893030000000     0.409407   
C259     C      0.985340000000     0.571650000000     0.748810000000     0.422147   
C260     C      0.535240000000     0.980490000000     0.911640000000     0.422397   
C261     C      0.556420000000     0.760130000000     0.672350000000     0.407392   
C262     C      0.959490000000     0.884700000000     0.069660000000     0.412142   
C263     C      0.577100000000     0.930270000000     0.635400000000     0.41518    
C264     C      0.000740000000     0.714310000000     0.067270000000     0.414545   
C265     C      0.060380000000     0.765930000000     0.987260000000     0.409975   
C266     C      0.639670000000     0.887850000000     0.565050000000     0.405797   
C267     C      0.657450000000     0.771440000000     0.618120000000     0.410551   
C268     C      0.011870000000     0.862350000000     0.976660000000     0.409014   
C269     C      0.886900000000     0.533430000000     0.663770000000     0.42058    
C270     C      0.734130000000     0.986080000000     0.086100000000     0.412478   
C271     C      0.763890000000     0.596160000000     0.700220000000     0.415628   
C272     C      0.875000000000     0.981860000000     0.027750000000     0.412076   
C273     C      0.855400000000     0.089170000000     0.987180000000     0.408776   
C274     C      0.766330000000     0.666610000000     0.617720000000     0.409416   
C275     C      0.919650000000     0.624030000000     0.621210000000     0.416343   
C276     C      0.727510000000     0.082770000000     0.015270000000     0.408049   
C277     C      0.892070000000     0.908590000000     0.042850000000     0.071526   
C278     C      0.989480000000     0.645220000000     0.600400000000     0.0800994  
C279     C      0.714200000000     0.911020000000     0.072640000000     0.0776869  
C280     C      0.710760000000     0.718130000000     0.602520000000     0.0732871  
C281     C      0.869490000000     0.590640000000     0.909410000000     0.0752274  
C282     C      0.656840000000     0.089900000000     0.987650000000     0.0740925  
C283     C      0.704350000000     0.097110000000     0.748980000000     0.0762689  
C284     C      0.923770000000     0.529620000000     0.731700000000     0.0797897  
C285     C      0.038900000000     0.738030000000     0.917460000000     0.0790283  
C286     C      0.530950000000     0.903710000000     0.913070000000     0.0847463  
C287     C      0.614810000000     0.978040000000     0.684030000000     0.0835268  
C288     C      0.042210000000     0.746720000000     0.751340000000     0.0734447  
Co1      Co     0.567410000000     0.084050000000     0.284230000000     0.861683   
Co2      Co     0.033720000000     0.572200000000     0.399810000000     0.859651   
Co3      Co     0.499740000000     0.116140000000     0.329920000000     0.83178    
Co4      Co     0.085910000000     0.525700000000     0.347120000000     0.844268   
Co5      Co     0.075230000000     0.267670000000     0.079500000000     0.863089   
Co6      Co     0.549620000000     0.377030000000     0.562820000000     0.865638   
Co7      Co     0.094350000000     0.337290000000     0.131670000000     0.842407   
Co8      Co     0.501820000000     0.305430000000     0.547650000000     0.866602   
Co9      Co     0.372660000000     0.060970000000     0.074200000000     0.85076    
Co10     Co     0.255850000000     0.574990000000     0.606010000000     0.85934    
Co11     Co     0.332110000000     0.102070000000     0.139800000000     0.844516   
Co12     Co     0.299680000000     0.533600000000     0.539360000000     0.825928   
Co13     Co     0.567460000000     0.084170000000     0.783870000000     0.861268   
Co14     Co     0.034410000000     0.572190000000     0.899760000000     0.859329   
Co15     Co     0.500120000000     0.116250000000     0.830090000000     0.831701   
Co16     Co     0.086570000000     0.526010000000     0.846740000000     0.84432    
Co17     Co     0.074240000000     0.267690000000     0.579190000000     0.862631   
Co18     Co     0.551200000000     0.377060000000     0.062810000000     0.866252   
Co19     Co     0.093410000000     0.337300000000     0.631230000000     0.841131   
Co20     Co     0.502940000000     0.305750000000     0.047870000000     0.868616   
Co21     Co     0.372170000000     0.060150000000     0.573870000000     0.852198   
Co22     Co     0.256390000000     0.575090000000     0.106220000000     0.859016   
Co23     Co     0.331770000000     0.102490000000     0.638750000000     0.843116   
Co24     Co     0.300410000000     0.533640000000     0.039730000000     0.826778   
Co25     Co     0.567430000000     0.584150000000     0.283980000000     0.861354   
Co26     Co     0.033120000000     0.072080000000     0.399780000000     0.858741   
Co27     Co     0.500030000000     0.616200000000     0.330120000000     0.830808   
Co28     Co     0.085100000000     0.025150000000     0.347250000000     0.84592    
Co29     Co     0.075140000000     0.767610000000     0.079610000000     0.863188   
Co30     Co     0.549230000000     0.876880000000     0.562940000000     0.865669   
Co31     Co     0.094230000000     0.837270000000     0.131670000000     0.842538   
Co32     Co     0.501580000000     0.805130000000     0.547940000000     0.866389   
Co33     Co     0.372770000000     0.560700000000     0.074870000000     0.850662   
Co34     Co     0.255840000000     0.074810000000     0.605230000000     0.859647   
Co35     Co     0.332260000000     0.602550000000     0.139990000000     0.843833   
Co36     Co     0.299710000000     0.033230000000     0.538790000000     0.826787   
Co37     Co     0.567510000000     0.584280000000     0.783630000000     0.861013   
Co38     Co     0.033790000000     0.072060000000     0.899730000000     0.859353   
Co39     Co     0.500430000000     0.616310000000     0.830280000000     0.830966   
Co40     Co     0.085770000000     0.025490000000     0.846880000000     0.845481   
Co41     Co     0.074140000000     0.767620000000     0.579310000000     0.86283    
Co42     Co     0.550840000000     0.876900000000     0.062910000000     0.866308   
Co43     Co     0.093280000000     0.837280000000     0.631240000000     0.841323   
Co44     Co     0.502710000000     0.805450000000     0.048150000000     0.868483   
Co45     Co     0.372270000000     0.559890000000     0.574530000000     0.852137   
Co46     Co     0.256370000000     0.074870000000     0.105450000000     0.85948    
Co47     Co     0.331910000000     0.602950000000     0.638950000000     0.842664   
Co48     Co     0.300430000000     0.033260000000     0.039170000000     0.827577   
Co49     Co     0.067420000000     0.084140000000     0.284270000000     0.860984   
Co50     Co     0.533680000000     0.572110000000     0.399700000000     0.861011   
Co51     Co     0.999870000000     0.116350000000     0.330090000000     0.836614   
Co52     Co     0.585850000000     0.525550000000     0.346990000000     0.844459   
Co53     Co     0.575300000000     0.267650000000     0.079140000000     0.863658   
Co54     Co     0.049440000000     0.377090000000     0.563180000000     0.863804   
Co55     Co     0.594390000000     0.337220000000     0.131440000000     0.843131   
Co56     Co     0.001890000000     0.305390000000     0.547780000000     0.861319   
Co57     Co     0.872730000000     0.060750000000     0.074280000000     0.8512     
Co58     Co     0.755850000000     0.574930000000     0.605890000000     0.859394   
Co59     Co     0.832100000000     0.102080000000     0.139670000000     0.844535   
Co60     Co     0.799750000000     0.533500000000     0.539320000000     0.825651   
Co61     Co     0.067470000000     0.084260000000     0.783910000000     0.861367   
Co62     Co     0.534350000000     0.572090000000     0.899650000000     0.860898   
Co63     Co     0.000260000000     0.116450000000     0.830250000000     0.828783   
Co64     Co     0.586500000000     0.525860000000     0.846610000000     0.844483   
Co65     Co     0.574320000000     0.267670000000     0.578810000000     0.863382   
Co66     Co     0.051000000000     0.377130000000     0.063170000000     0.864407   
Co67     Co     0.593440000000     0.337230000000     0.631000000000     0.841921   
Co68     Co     0.003000000000     0.305700000000     0.047980000000     0.863499   
Co69     Co     0.872230000000     0.059930000000     0.573970000000     0.852417   
Co70     Co     0.756400000000     0.575030000000     0.106080000000     0.859013   
Co71     Co     0.831760000000     0.102500000000     0.638640000000     0.84329    
Co72     Co     0.800480000000     0.533540000000     0.039680000000     0.826646   
Co73     Co     0.067460000000     0.584250000000     0.284020000000     0.861524   
Co74     Co     0.533090000000     0.071990000000     0.399670000000     0.861017   
Co75     Co     0.000160000000     0.616390000000     0.330270000000     0.82793    
Co76     Co     0.585060000000     0.025010000000     0.347130000000     0.845909   
Co77     Co     0.575230000000     0.767590000000     0.079250000000     0.863838   
Co78     Co     0.049030000000     0.876940000000     0.563290000000     0.863797   
Co79     Co     0.594300000000     0.837200000000     0.131450000000     0.843256   
Co80     Co     0.001620000000     0.805090000000     0.548050000000     0.861346   
Co81     Co     0.872840000000     0.560460000000     0.074950000000     0.850897   
Co82     Co     0.755830000000     0.074770000000     0.605120000000     0.859875   
Co83     Co     0.832250000000     0.602530000000     0.139870000000     0.843997   
Co84     Co     0.799770000000     0.033160000000     0.538750000000     0.826564   
Co85     Co     0.067540000000     0.584370000000     0.783660000000     0.861399   
Co86     Co     0.533750000000     0.071970000000     0.899620000000     0.860851   
Co87     Co     0.000570000000     0.616500000000     0.830430000000     0.828116   
Co88     Co     0.585730000000     0.025350000000     0.846770000000     0.845577   
Co89     Co     0.574230000000     0.767600000000     0.578940000000     0.863569   
Co90     Co     0.050620000000     0.876970000000     0.063250000000     0.864479   
Co91     Co     0.593340000000     0.837210000000     0.631010000000     0.841943   
Co92     Co     0.002750000000     0.805400000000     0.048250000000     0.863384   
Co93     Co     0.872320000000     0.559660000000     0.574620000000     0.852182   
Co94     Co     0.756370000000     0.074830000000     0.105330000000     0.859444   
Co95     Co     0.831890000000     0.602920000000     0.638850000000     0.842909   
Co96     Co     0.800490000000     0.033190000000     0.039120000000     0.827562   
H1       H      0.429460000000     0.437450000000     0.091120000000     0.119135   
H2       H      0.422180000000     0.449510000000     0.501580000000     0.113196   
H3       H      0.392280000000     0.379850000000     0.522240000000     0.0416623  
H4       H      0.362770000000     0.408290000000     0.060440000000     0.0378322  
H5       H      0.455630000000     0.164610000000     0.657070000000     0.112813   
H6       H      0.451020000000     0.176230000000     0.055730000000     0.12226    
H7       H      0.517700000000     0.154810000000     0.120950000000     0.0415348  
H8       H      0.493330000000     0.114740000000     0.584800000000     0.0456013  
H9       H      0.190960000000     0.452850000000     0.121170000000     0.116339   
H10      H      0.173050000000     0.418480000000     0.518110000000     0.115708   
H11      H      0.239010000000     0.411250000000     0.549120000000     0.0376428  
H12      H      0.218750000000     0.385590000000     0.096890000000     0.0364048  
H13      H      0.213750000000     0.269090000000     0.649390000000     0.112233   
H14      H      0.273220000000     0.230490000000     0.127380000000     0.110187   
H15      H      0.189680000000     0.191740000000     0.107690000000     0.0512259  
H16      H      0.211400000000     0.224660000000     0.568270000000     0.0370124  
H17      H      0.404050000000     0.537070000000     0.426920000000     0.118562   
H18      H      0.385420000000     0.136110000000     0.454710000000     0.113966   
H19      H      0.370020000000     0.115370000000     0.383420000000     0.0368535  
H20      H      0.340920000000     0.571170000000     0.403630000000     0.0374067  
H21      H      0.211690000000     0.102550000000     0.454420000000     0.111559   
H22      H      0.168690000000     0.529860000000     0.461050000000     0.117614   
H23      H      0.146340000000     0.583470000000     0.521870000000     0.0456628  
H24      H      0.139640000000     0.118440000000     0.476180000000     0.0389136  
H25      H      0.267980000000     0.606350000000     0.266230000000     0.112992   
H26      H      0.216560000000     0.052180000000     0.302370000000     0.114102   
H27      H      0.194240000000     0.128380000000     0.254300000000     0.0391836  
H28      H      0.186100000000     0.588580000000     0.221670000000     0.0513673  
H29      H      0.420050000000     0.480360000000     0.182730000000     0.108405   
H30      H      0.476660000000     0.043530000000     0.189450000000     0.117538   
H31      H      0.403210000000     0.049930000000     0.245460000000     0.0505983  
H32      H      0.431800000000     0.503150000000     0.254940000000     0.028186   
H33      H      0.100290000000     0.248650000000     0.438730000000     0.109299   
H34      H      0.522210000000     0.193900000000     0.466790000000     0.124204   
H35      H      0.511500000000     0.260450000000     0.415100000000     0.0424285  
H36      H      0.051480000000     0.234130000000     0.384430000000     0.0303498  
H37      H      0.001280000000     0.448140000000     0.456590000000     0.122133   
H38      H      0.483120000000     0.356850000000     0.416680000000     0.111213   
H39      H      0.024650000000     0.403210000000     0.378060000000     0.0305302  
H40      H      0.063850000000     0.397500000000     0.418260000000     0.0420542  
H41      H      0.604860000000     0.436770000000     0.237790000000     0.11997    
H42      H      0.568480000000     0.494390000000     0.139710000000     0.118744   
H43      H      0.124710000000     0.511690000000     0.182230000000     0.0389829  
H44      H      0.143370000000     0.458620000000     0.177810000000     0.0312982  
H45      H      0.528010000000     0.208070000000     0.197350000000     0.112025   
H46      H      0.100390000000     0.218080000000     0.264940000000     0.113439   
H47      H      0.056420000000     0.277920000000     0.256990000000     0.0344566  
H48      H      0.511820000000     0.244890000000     0.264930000000     0.0365469  
H49      H      0.427510000000     0.436460000000     0.591750000000     0.119143   
H50      H      0.423840000000     0.451150000000     0.001560000000     0.113247   
H51      H      0.394210000000     0.381080000000     0.021470000000     0.0415673  
H52      H      0.360990000000     0.407580000000     0.560970000000     0.0376016  
H53      H      0.455690000000     0.163880000000     0.159900000000     0.112701   
H54      H      0.451970000000     0.174650000000     0.552010000000     0.122192   
H55      H      0.517660000000     0.153350000000     0.618400000000     0.0417266  
H56      H      0.493800000000     0.115960000000     0.086920000000     0.0458232  
H57      H      0.190660000000     0.452610000000     0.621070000000     0.116377   
H58      H      0.174860000000     0.417920000000     0.018810000000     0.115928   
H59      H      0.240770000000     0.410610000000     0.050680000000     0.0373891  
H60      H      0.217280000000     0.385630000000     0.595690000000     0.03663    
H61      H      0.214520000000     0.269050000000     0.150210000000     0.112318   
H62      H      0.272390000000     0.230650000000     0.625970000000     0.110232   
H63      H      0.188740000000     0.191550000000     0.607680000000     0.051145   
H64      H      0.212900000000     0.225170000000     0.068910000000     0.0368128  
H65      H      0.404810000000     0.537420000000     0.927800000000     0.118721   
H66      H      0.385380000000     0.136620000000     0.954810000000     0.114201   
H67      H      0.370550000000     0.115280000000     0.883600000000     0.0368324  
H68      H      0.341600000000     0.571070000000     0.903950000000     0.037407   
H69      H      0.212620000000     0.102530000000     0.954490000000     0.111492   
H70      H      0.169750000000     0.530080000000     0.960330000000     0.117626   
H71      H      0.147080000000     0.583200000000     0.021570000000     0.0456214  
H72      H      0.140460000000     0.118440000000     0.976130000000     0.038898   
H73      H      0.268190000000     0.608190000000     0.765510000000     0.112851   
H74      H      0.216930000000     0.053590000000     0.801760000000     0.114165   
H75      H      0.194590000000     0.130140000000     0.754810000000     0.0385663  
H76      H      0.186000000000     0.590820000000     0.721380000000     0.0516745  
H77      H      0.419120000000     0.480960000000     0.683620000000     0.108456   
H78      H      0.475850000000     0.044210000000     0.689530000000     0.117593   
H79      H      0.402490000000     0.051540000000     0.745290000000     0.0504465  
H80      H      0.430720000000     0.504660000000     0.755560000000     0.0283605  
H81      H      0.101050000000     0.248210000000     0.939050000000     0.109283   
H82      H      0.522750000000     0.193720000000     0.967080000000     0.124287   
H83      H      0.512260000000     0.260400000000     0.915560000000     0.0424588  
H84      H      0.052140000000     0.234020000000     0.884770000000     0.0303161  
H85      H      0.002900000000     0.447870000000     0.956550000000     0.122065   
H86      H      0.485130000000     0.356600000000     0.916490000000     0.111196   
H87      H      0.026680000000     0.403070000000     0.877980000000     0.0306822  
H88      H      0.065740000000     0.397620000000     0.918370000000     0.0421105  
H89      H      0.604930000000     0.436920000000     0.737430000000     0.120069   
H90      H      0.566940000000     0.494260000000     0.639870000000     0.118739   
H91      H      0.123850000000     0.511720000000     0.681380000000     0.0391108  
H92      H      0.142510000000     0.458660000000     0.676790000000     0.0313986  
H93      H      0.526910000000     0.208330000000     0.697200000000     0.112055   
H94      H      0.100120000000     0.218190000000     0.763930000000     0.113471   
H95      H      0.055980000000     0.278030000000     0.756700000000     0.0344939  
H96      H      0.511520000000     0.244920000000     0.765040000000     0.0365914  
H97      H      0.428990000000     0.936870000000     0.091790000000     0.118717   
H98      H      0.422820000000     0.949410000000     0.502280000000     0.113185   
H99      H      0.392270000000     0.879760000000     0.522250000000     0.0416768  
H100     H      0.362530000000     0.908220000000     0.060190000000     0.0380601  
H101     H      0.456040000000     0.664610000000     0.657020000000     0.112754   
H102     H      0.451420000000     0.675610000000     0.055620000000     0.122213   
H103     H      0.518110000000     0.654400000000     0.120920000000     0.0415785  
H104     H      0.493570000000     0.614280000000     0.584940000000     0.045603   
H105     H      0.190360000000     0.952960000000     0.120230000000     0.11633    
H106     H      0.172490000000     0.918080000000     0.517530000000     0.115581   
H107     H      0.238550000000     0.911130000000     0.548410000000     0.0375832  
H108     H      0.218480000000     0.885580000000     0.096360000000     0.0364394  
H109     H      0.213820000000     0.769300000000     0.649080000000     0.112339   
H110     H      0.273430000000     0.730910000000     0.126480000000     0.110181   
H111     H      0.189810000000     0.691930000000     0.107410000000     0.0513115  
H112     H      0.211280000000     0.724850000000     0.567980000000     0.0369615  
H113     H      0.403270000000     0.036780000000     0.425920000000     0.11865    
H114     H      0.386450000000     0.635710000000     0.455610000000     0.114143   
H115     H      0.370220000000     0.615370000000     0.384110000000     0.0367379  
H116     H      0.340460000000     0.070900000000     0.403100000000     0.0375919  
H117     H      0.211920000000     0.603840000000     0.455450000000     0.111502   
H118     H      0.167790000000     0.029140000000     0.461230000000     0.117701   
H119     H      0.146280000000     0.083700000000     0.521460000000     0.0457786  
H120     H      0.139610000000     0.618690000000     0.476980000000     0.0390719  
H121     H      0.267770000000     0.102850000000     0.266060000000     0.113224   
H122     H      0.217020000000     0.554480000000     0.301970000000     0.114143   
H123     H      0.195020000000     0.631560000000     0.257080000000     0.0381534  
H124     H      0.186480000000     0.083210000000     0.221540000000     0.050923   
H125     H      0.421300000000     0.980530000000     0.181380000000     0.107996   
H126     H      0.475990000000     0.542930000000     0.190150000000     0.117492   
H127     H      0.402740000000     0.550420000000     0.246270000000     0.0504615  
H128     H      0.432700000000     0.002900000000     0.253810000000     0.0282982  
H129     H      0.100300000000     0.749220000000     0.438800000000     0.109255   
H130     H      0.522710000000     0.693930000000     0.466920000000     0.124198   
H131     H      0.511470000000     0.760440000000     0.415230000000     0.0423948  
H132     H      0.051540000000     0.734390000000     0.384540000000     0.0303634  
H133     H      0.999990000000     0.948250000000     0.456830000000     0.124459   
H134     H      0.481590000000     0.856880000000     0.417330000000     0.11124    
H135     H      0.022870000000     0.903100000000     0.378340000000     0.0303658  
H136     H      0.062340000000     0.897370000000     0.418240000000     0.0420201  
H137     H      0.604200000000     0.936600000000     0.237620000000     0.119921   
H138     H      0.568500000000     0.994390000000     0.139490000000     0.118433   
H139     H      0.124450000000     0.011690000000     0.182360000000     0.0392789  
H140     H      0.143190000000     0.958640000000     0.177960000000     0.0314348  
H141     H      0.527640000000     0.708300000000     0.197500000000     0.111822   
H142     H      0.100350000000     0.718210000000     0.264690000000     0.113314   
H143     H      0.056320000000     0.778060000000     0.257090000000     0.0344352  
H144     H      0.511810000000     0.745010000000     0.265190000000     0.0365363  
H145     H      0.427000000000     0.935850000000     0.592470000000     0.118727   
H146     H      0.424470000000     0.951070000000     0.002230000000     0.113218   
H147     H      0.394230000000     0.881010000000     0.021460000000     0.0415546  
H148     H      0.360720000000     0.907510000000     0.560730000000     0.0378226  
H149     H      0.456140000000     0.663850000000     0.159870000000     0.112678   
H150     H      0.452350000000     0.674060000000     0.551900000000     0.122149   
H151     H      0.518040000000     0.652950000000     0.618350000000     0.0417619  
H152     H      0.494080000000     0.615480000000     0.087060000000     0.0458139  
H153     H      0.190010000000     0.952780000000     0.620090000000     0.116352   
H154     H      0.174350000000     0.917480000000     0.018240000000     0.11581    
H155     H      0.240340000000     0.910460000000     0.049990000000     0.0373212  
H156     H      0.216970000000     0.885660000000     0.595150000000     0.036697   
H157     H      0.214620000000     0.769280000000     0.149890000000     0.112355   
H158     H      0.272550000000     0.731030000000     0.625110000000     0.110255   
H159     H      0.188830000000     0.691700000000     0.607490000000     0.0511988  
H160     H      0.212830000000     0.725450000000     0.068580000000     0.0367413  
H161     H      0.404020000000     0.037140000000     0.926830000000     0.118814   
H162     H      0.386490000000     0.636210000000     0.955730000000     0.114299   
H163     H      0.370770000000     0.615290000000     0.884290000000     0.0367233  
H164     H      0.341130000000     0.070790000000     0.903410000000     0.0375684  
H165     H      0.212880000000     0.603810000000     0.955500000000     0.111537   
H166     H      0.168820000000     0.029350000000     0.960560000000     0.117739   
H167     H      0.146980000000     0.083430000000     0.021210000000     0.0457113  
H168     H      0.140460000000     0.618690000000     0.976890000000     0.0390327  
H169     H      0.267980000000     0.104780000000     0.765360000000     0.113052   
H170     H      0.217370000000     0.555720000000     0.801340000000     0.11424    
H171     H      0.195390000000     0.633100000000     0.757550000000     0.0375346  
H172     H      0.186330000000     0.085690000000     0.721220000000     0.0512942  
H173     H      0.420290000000     0.981090000000     0.682320000000     0.108141   
H174     H      0.475240000000     0.543670000000     0.690190000000     0.117558   
H175     H      0.402090000000     0.552030000000     0.746060000000     0.0502939  
H176     H      0.431540000000     0.004370000000     0.754490000000     0.0284669  
H177     H      0.101080000000     0.748790000000     0.939110000000     0.109247   
H178     H      0.523280000000     0.693750000000     0.967210000000     0.124226   
H179     H      0.512250000000     0.760390000000     0.915690000000     0.0424587  
H180     H      0.052220000000     0.734280000000     0.884870000000     0.0303115  
H181     H      0.001600000000     0.947960000000     0.956750000000     0.121748   
H182     H      0.483630000000     0.856610000000     0.917110000000     0.111166   
H183     H      0.024910000000     0.902950000000     0.878230000000     0.030561   
H184     H      0.064240000000     0.897490000000     0.918340000000     0.042109   
H185     H      0.604330000000     0.936750000000     0.737300000000     0.120001   
H186     H      0.566950000000     0.994260000000     0.639690000000     0.118427   
H187     H      0.123610000000     0.011710000000     0.681520000000     0.0393984  
H188     H      0.142340000000     0.958680000000     0.676930000000     0.0315249  
H189     H      0.526540000000     0.708570000000     0.697370000000     0.111945   
H190     H      0.100090000000     0.718330000000     0.763690000000     0.113397   
H191     H      0.055900000000     0.778180000000     0.756800000000     0.0344833  
H192     H      0.511540000000     0.745050000000     0.765320000000     0.0366151  
H193     H      0.929030000000     0.437020000000     0.091500000000     0.119298   
H194     H      0.922180000000     0.449180000000     0.501800000000     0.113719   
H195     H      0.892150000000     0.379560000000     0.522350000000     0.0418324  
H196     H      0.862510000000     0.408010000000     0.060420000000     0.0378828  
H197     H      0.955570000000     0.164760000000     0.656790000000     0.113514   
H198     H      0.951240000000     0.176050000000     0.055390000000     0.122329   
H199     H      0.017730000000     0.154650000000     0.120840000000     0.0397565  
H200     H      0.993320000000     0.114600000000     0.584710000000     0.0457578  
H201     H      0.691050000000     0.452750000000     0.121150000000     0.116305   
H202     H      0.673350000000     0.418310000000     0.518010000000     0.11575    
H203     H      0.739230000000     0.411110000000     0.549220000000     0.0376793  
H204     H      0.718860000000     0.385480000000     0.096970000000     0.036372   
H205     H      0.713800000000     0.269030000000     0.649060000000     0.112294   
H206     H      0.773300000000     0.230480000000     0.126930000000     0.110341   
H207     H      0.689760000000     0.191750000000     0.107200000000     0.0512772  
H208     H      0.711520000000     0.224730000000     0.567870000000     0.0369702  
H209     H      0.904070000000     0.537010000000     0.426700000000     0.118731   
H210     H      0.885720000000     0.136030000000     0.454920000000     0.114231   
H211     H      0.870120000000     0.115590000000     0.383590000000     0.0369553  
H212     H      0.840980000000     0.571330000000     0.403700000000     0.0374783  
H213     H      0.711730000000     0.102270000000     0.454230000000     0.111538   
H214     H      0.668600000000     0.529610000000     0.460940000000     0.117623   
H215     H      0.646370000000     0.583300000000     0.521720000000     0.0457423  
H216     H      0.639690000000     0.118290000000     0.476010000000     0.0389821  
H217     H      0.767930000000     0.606200000000     0.266110000000     0.113022   
H218     H      0.716540000000     0.052030000000     0.302190000000     0.114101   
H219     H      0.694190000000     0.128270000000     0.254190000000     0.0392258  
H220     H      0.686070000000     0.588420000000     0.221510000000     0.0513515  
H221     H      0.919950000000     0.480470000000     0.183160000000     0.108708   
H222     H      0.976450000000     0.043840000000     0.189630000000     0.11835    
H223     H      0.903050000000     0.050300000000     0.245630000000     0.0505908  
H224     H      0.931680000000     0.503520000000     0.255280000000     0.0285327  
H225     H      0.599760000000     0.248670000000     0.438210000000     0.109337   
H226     H      0.022670000000     0.193960000000     0.466970000000     0.123866   
H227     H      0.012160000000     0.260530000000     0.415150000000     0.0417883  
H228     H      0.550720000000     0.234140000000     0.384150000000     0.0305515  
H229     H      0.500830000000     0.447980000000     0.456140000000     0.122481   
H230     H      0.983580000000     0.356630000000     0.416720000000     0.11294    
H231     H      0.524430000000     0.402980000000     0.377830000000     0.0307971  
H232     H      0.563760000000     0.397260000000     0.417370000000     0.0417291  
H233     H      0.105040000000     0.436830000000     0.238010000000     0.119887   
H234     H      0.068460000000     0.494470000000     0.140030000000     0.118339   
H235     H      0.624560000000     0.511660000000     0.182060000000     0.0389949  
H236     H      0.643280000000     0.458600000000     0.177680000000     0.0312589  
H237     H      0.026180000000     0.209150000000     0.197500000000     0.111438   
H238     H      0.600650000000     0.218100000000     0.266150000000     0.113327   
H239     H      0.556790000000     0.277710000000     0.256700000000     0.0347135  
H240     H      0.011550000000     0.245580000000     0.265750000000     0.0358274  
H241     H      0.927100000000     0.436060000000     0.592120000000     0.119318   
H242     H      0.923850000000     0.450790000000     0.001780000000     0.113733   
H243     H      0.894070000000     0.380780000000     0.021570000000     0.0417379  
H244     H      0.860750000000     0.407310000000     0.560960000000     0.0376144  
H245     H      0.955640000000     0.164030000000     0.159610000000     0.11339    
H246     H      0.952180000000     0.174500000000     0.551710000000     0.122272   
H247     H      0.017680000000     0.153190000000     0.618300000000     0.0399449  
H248     H      0.993790000000     0.115810000000     0.086830000000     0.0459695  
H249     H      0.690730000000     0.452520000000     0.621040000000     0.116294   
H250     H      0.675180000000     0.417730000000     0.018720000000     0.11594    
H251     H      0.741000000000     0.410460000000     0.050790000000     0.0373983  
H252     H      0.717370000000     0.385530000000     0.595760000000     0.0366339  
H253     H      0.714580000000     0.268980000000     0.149870000000     0.112383   
H254     H      0.772470000000     0.230650000000     0.625540000000     0.110313   
H255     H      0.688820000000     0.191560000000     0.607200000000     0.0511906  
H256     H      0.713020000000     0.225240000000     0.068500000000     0.0367713  
H257     H      0.904840000000     0.537360000000     0.927580000000     0.118902   
H258     H      0.885670000000     0.136540000000     0.955000000000     0.114462   
H259     H      0.870660000000     0.115480000000     0.883740000000     0.0369927  
H260     H      0.841670000000     0.571210000000     0.903990000000     0.037436   
H261     H      0.712650000000     0.102230000000     0.954300000000     0.111518   
H262     H      0.669650000000     0.529820000000     0.960230000000     0.117657   
H263     H      0.647100000000     0.583030000000     0.021430000000     0.0457061  
H264     H      0.640510000000     0.118280000000     0.975960000000     0.0389316  
H265     H      0.768140000000     0.608040000000     0.765400000000     0.112935   
H266     H      0.716890000000     0.053430000000     0.801590000000     0.114228   
H267     H      0.694530000000     0.130030000000     0.754710000000     0.0386257  
H268     H      0.685970000000     0.590670000000     0.721240000000     0.051644   
H269     H      0.919010000000     0.481080000000     0.684060000000     0.108878   
H270     H      0.975650000000     0.044500000000     0.689710000000     0.118317   
H271     H      0.902340000000     0.051910000000     0.745470000000     0.0504604  
H272     H      0.930590000000     0.505030000000     0.755920000000     0.0286996  
H273     H      0.600510000000     0.248220000000     0.938560000000     0.109334   
H274     H      0.023230000000     0.193780000000     0.967250000000     0.123897   
H275     H      0.012930000000     0.260480000000     0.915590000000     0.0418487  
H276     H      0.551360000000     0.234030000000     0.884500000000     0.030509   
H277     H      0.502430000000     0.447710000000     0.956080000000     0.122414   
H278     H      0.985620000000     0.356370000000     0.916520000000     0.112991   
H279     H      0.526480000000     0.402810000000     0.877760000000     0.0309493  
H280     H      0.565650000000     0.397390000000     0.917520000000     0.0418089  
H281     H      0.105120000000     0.436980000000     0.737660000000     0.119994   
H282     H      0.066960000000     0.494330000000     0.640200000000     0.118407   
H283     H      0.623680000000     0.511700000000     0.681200000000     0.0391175  
H284     H      0.642410000000     0.458660000000     0.676650000000     0.0313468  
H285     H      0.025040000000     0.209450000000     0.697370000000     0.111595   
H286     H      0.600400000000     0.218210000000     0.765190000000     0.113323   
H287     H      0.556360000000     0.277820000000     0.756390000000     0.0347506  
H288     H      0.011260000000     0.245610000000     0.765890000000     0.0359179  
H289     H      0.928540000000     0.936450000000     0.092150000000     0.118958   
H290     H      0.922800000000     0.949080000000     0.502480000000     0.113511   
H291     H      0.892120000000     0.879500000000     0.522350000000     0.0417951  
H292     H      0.862250000000     0.907970000000     0.060170000000     0.0380898  
H293     H      0.955980000000     0.664730000000     0.656750000000     0.113448   
H294     H      0.951610000000     0.675440000000     0.055290000000     0.122259   
H295     H      0.018130000000     0.654240000000     0.120800000000     0.0398224  
H296     H      0.993550000000     0.614150000000     0.584840000000     0.0457961  
H297     H      0.690470000000     0.952860000000     0.120220000000     0.116287   
H298     H      0.672810000000     0.917930000000     0.517440000000     0.115615   
H299     H      0.738780000000     0.911020000000     0.548520000000     0.0376304  
H300     H      0.718600000000     0.885480000000     0.096430000000     0.0364426  
H301     H      0.713890000000     0.769230000000     0.648770000000     0.112342   
H302     H      0.773530000000     0.730880000000     0.126060000000     0.110266   
H303     H      0.689900000000     0.691930000000     0.106940000000     0.0513679  
H304     H      0.711430000000     0.724910000000     0.567600000000     0.0369181  
H305     H      0.903270000000     0.036750000000     0.425690000000     0.118802   
H306     H      0.886740000000     0.635600000000     0.455820000000     0.114372   
H307     H      0.870320000000     0.615550000000     0.384260000000     0.0368842  
H308     H      0.840510000000     0.071110000000     0.403170000000     0.037619   
H309     H      0.711950000000     0.603500000000     0.455250000000     0.111583   
H310     H      0.667730000000     0.028940000000     0.461130000000     0.117707   
H311     H      0.646310000000     0.083570000000     0.521320000000     0.0458738  
H312     H      0.639660000000     0.618500000000     0.476810000000     0.0391034  
H313     H      0.767740000000     0.102770000000     0.265940000000     0.113214   
H314     H      0.716970000000     0.554270000000     0.301790000000     0.114137   
H315     H      0.694960000000     0.631390000000     0.256940000000     0.0382009  
H316     H      0.686460000000     0.083110000000     0.221400000000     0.0508931  
H317     H      0.921170000000     0.980660000000     0.181840000000     0.108308   
H318     H      0.975810000000     0.543210000000     0.190310000000     0.118249   
H319     H      0.902610000000     0.550750000000     0.246420000000     0.0504725  
H320     H      0.932550000000     0.003310000000     0.254180000000     0.0286223  
H321     H      0.599820000000     0.749270000000     0.438290000000     0.109299   
H322     H      0.023100000000     0.694000000000     0.467090000000     0.123811   
H323     H      0.012080000000     0.760540000000     0.415280000000     0.0418051  
H324     H      0.550840000000     0.734400000000     0.384260000000     0.0305665  
H325     H      0.499600000000     0.948100000000     0.456400000000     0.122166   
H326     H      0.982000000000     0.856660000000     0.417370000000     0.112968   
H327     H      0.522700000000     0.902880000000     0.378130000000     0.0306616  
H328     H      0.562300000000     0.897130000000     0.417360000000     0.0417506  
H329     H      0.104330000000     0.936670000000     0.237820000000     0.119899   
H330     H      0.068460000000     0.994470000000     0.139790000000     0.118122   
H331     H      0.624340000000     0.011650000000     0.182210000000     0.0392935  
H332     H      0.643120000000     0.958610000000     0.177830000000     0.0313904  
H333     H      0.025750000000     0.709410000000     0.197640000000     0.11135    
H334     H      0.600640000000     0.718220000000     0.265960000000     0.113252   
H335     H      0.556740000000     0.777850000000     0.256800000000     0.0347099  
H336     H      0.011510000000     0.745690000000     0.266010000000     0.0358461  
H337     H      0.926590000000     0.935460000000     0.592810000000     0.118974   
H338     H      0.924450000000     0.950730000000     0.002450000000     0.113801   
H339     H      0.894070000000     0.880730000000     0.021550000000     0.0417176  
H340     H      0.860470000000     0.907270000000     0.560720000000     0.037833   
H341     H      0.956080000000     0.663970000000     0.159590000000     0.113374   
H342     H      0.952530000000     0.673920000000     0.551620000000     0.122215   
H343     H      0.018060000000     0.652790000000     0.618250000000     0.0400001  
H344     H      0.994060000000     0.615340000000     0.086960000000     0.045997   
H345     H      0.690100000000     0.952690000000     0.620080000000     0.11633    
H346     H      0.674690000000     0.917310000000     0.018150000000     0.115812   
H347     H      0.740580000000     0.910330000000     0.050110000000     0.0373347  
H348     H      0.717080000000     0.885580000000     0.595210000000     0.0367017  
H349     H      0.714700000000     0.769200000000     0.149560000000     0.11239    
H350     H      0.772650000000     0.731000000000     0.624720000000     0.110311   
H351     H      0.688910000000     0.691700000000     0.607020000000     0.0512565  
H352     H      0.712970000000     0.725500000000     0.068190000000     0.0366984  
H353     H      0.904030000000     0.037100000000     0.926600000000     0.118967   
H354     H      0.886760000000     0.636100000000     0.955900000000     0.114576   
H355     H      0.870880000000     0.615450000000     0.884430000000     0.036858   
H356     H      0.841180000000     0.070970000000     0.903460000000     0.0376292  
H357     H      0.712910000000     0.603450000000     0.955280000000     0.111536   
H358     H      0.668740000000     0.029130000000     0.960460000000     0.117794   
H359     H      0.647010000000     0.083300000000     0.021080000000     0.0458113  
H360     H      0.640510000000     0.618490000000     0.976720000000     0.0390991  
H361     H      0.767940000000     0.104710000000     0.765250000000     0.113089   
H362     H      0.717320000000     0.555500000000     0.801170000000     0.114161   
H363     H      0.695330000000     0.632930000000     0.757430000000     0.0376019  
H364     H      0.686300000000     0.085600000000     0.721090000000     0.0512889  
H365     H      0.920140000000     0.981220000000     0.682790000000     0.108463   
H366     H      0.975070000000     0.543930000000     0.690360000000     0.11828    
H367     H      0.901960000000     0.552370000000     0.746220000000     0.0503086  
H368     H      0.931380000000     0.004780000000     0.754870000000     0.0287992  
H369     H      0.600580000000     0.748820000000     0.938630000000     0.109364   
H370     H      0.023680000000     0.693820000000     0.967360000000     0.123902   
H371     H      0.012870000000     0.760480000000     0.915720000000     0.0418388  
H372     H      0.551500000000     0.734280000000     0.884610000000     0.0305207  
H373     H      0.501190000000     0.947800000000     0.956320000000     0.122074   
H374     H      0.984060000000     0.856380000000     0.917140000000     0.113019   
H375     H      0.524770000000     0.902710000000     0.878030000000     0.0308356  
H376     H      0.564210000000     0.897260000000     0.917490000000     0.0418182  
H377     H      0.104470000000     0.936810000000     0.737500000000     0.119883   
H378     H      0.066940000000     0.994340000000     0.639990000000     0.118083   
H379     H      0.623480000000     0.011680000000     0.681360000000     0.0394349  
H380     H      0.642260000000     0.958660000000     0.676800000000     0.0314778  
H381     H      0.024620000000     0.709720000000     0.697530000000     0.111481   
H382     H      0.600410000000     0.718350000000     0.765000000000     0.113273   
H383     H      0.556330000000     0.777960000000     0.756500000000     0.0347656  
H384     H      0.011240000000     0.745730000000     0.766170000000     0.0359189  
N1       N      0.393700000000     0.445720000000     0.516530000000    -0.21962    
N2       N      0.424520000000     0.408810000000     0.573980000000    -0.221839   
N3       N      0.480220000000     0.177090000000     0.567710000000    -0.220681   
N4       N      0.454720000000     0.144930000000     0.132580000000    -0.221638   
N5       N      0.176380000000     0.404440000000     0.049310000000    -0.219154   
N6       N      0.211220000000     0.451270000000     0.595450000000    -0.219239   
N7       N      0.253060000000     0.206530000000     0.118440000000    -0.220587   
N8       N      0.196220000000     0.255120000000     0.126660000000    -0.21995    
N9       N      0.367010000000     0.609930000000     0.451480000000    -0.218404   
N10      N      0.404580000000     0.063600000000     0.406650000000    -0.217793   
N11      N      0.147080000000     0.554130000000     0.461380000000    -0.221084   
N12      N      0.200350000000     0.598010000000     0.486150000000    -0.220598   
N13      N      0.194310000000     0.572330000000     0.286920000000    -0.221164   
N14      N      0.248210000000     0.095090000000     0.240720000000    -0.222267   
N15      N      0.463130000000     0.050110000000     0.219130000000    -0.222265   
N16      N      0.408690000000     0.009050000000     0.191390000000    -0.224103   
N17      N      0.522330000000     0.197990000000     0.433530000000    -0.220374   
N18      N      0.569000000000     0.253680000000     0.446140000000    -0.223085   
N19      N      0.505920000000     0.372130000000     0.434320000000    -0.224864   
N20      N      0.021010000000     0.445420000000     0.430290000000    -0.220457   
N21      N      0.083790000000     0.468890000000     0.153590000000    -0.220059   
N22      N      0.101740000000     0.467920000000     0.227910000000    -0.219685   
N23      N      0.569160000000     0.214230000000     0.271180000000    -0.218168   
N24      N      0.039670000000     0.237900000000     0.205440000000    -0.21908    
N25      N      0.395340000000     0.447000000000     0.016390000000    -0.219746   
N26      N      0.426280000000     0.409720000000     0.073510000000    -0.221965   
N27      N      0.479840000000     0.178200000000     0.070330000000    -0.220663   
N28      N      0.454550000000     0.144920000000     0.630310000000    -0.221586   
N29      N      0.174560000000     0.405500000000     0.548840000000    -0.219002   
N30      N      0.211880000000     0.451360000000     0.095880000000    -0.219495   
N31      N      0.252210000000     0.206570000000     0.617440000000    -0.220467   
N32      N      0.195340000000     0.255110000000     0.625960000000    -0.219865   
N33      N      0.367280000000     0.610240000000     0.951680000000    -0.218371   
N34      N      0.405260000000     0.063820000000     0.907350000000    -0.217836   
N35      N      0.148030000000     0.554250000000     0.960890000000    -0.22113    
N36      N      0.201200000000     0.598000000000     0.986150000000    -0.220663   
N37      N      0.194530000000     0.573400000000     0.786300000000    -0.221079   
N38      N      0.248280000000     0.096760000000     0.740220000000    -0.222192   
N39      N      0.462520000000     0.050850000000     0.719290000000    -0.222309   
N40      N      0.407880000000     0.009850000000     0.691850000000    -0.224168   
N41      N      0.522910000000     0.197860000000     0.933830000000    -0.220393   
N42      N      0.569770000000     0.253340000000     0.946520000000    -0.22313    
N43      N      0.507880000000     0.371910000000     0.934180000000    -0.224813   
N44      N      0.022560000000     0.445290000000     0.930180000000    -0.220534   
N45      N      0.082560000000     0.468810000000     0.653500000000    -0.220012   
N46      N      0.101610000000     0.468020000000     0.727520000000    -0.21977    
N47      N      0.568960000000     0.214330000000     0.770610000000    -0.218182   
N48      N      0.038750000000     0.238110000000     0.705230000000    -0.219173   
N49      N      0.394160000000     0.945650000000     0.516850000000    -0.219569   
N50      N      0.424100000000     0.908300000000     0.574510000000    -0.221722   
N51      N      0.480560000000     0.676610000000     0.567660000000    -0.220605   
N52      N      0.455140000000     0.644690000000     0.132710000000    -0.221614   
N53      N      0.175960000000     0.904140000000     0.048800000000    -0.219296   
N54      N      0.210750000000     0.951280000000     0.594630000000    -0.219121   
N55      N      0.253200000000     0.706870000000     0.117940000000    -0.22054    
N56      N      0.196270000000     0.755310000000     0.126410000000    -0.219916   
N57      N      0.366640000000     0.109780000000     0.450790000000    -0.218413   
N58      N      0.405220000000     0.563730000000     0.407420000000    -0.218      
N59      N      0.146410000000     0.053630000000     0.461350000000    -0.221114   
N60      N      0.200230000000     0.097280000000     0.485260000000    -0.2207     
N61      N      0.194090000000     0.070320000000     0.287270000000    -0.221346   
N62      N      0.248300000000     0.598480000000     0.241020000000    -0.22222    
N63      N      0.462610000000     0.549800000000     0.219830000000    -0.22233    
N64      N      0.407750000000     0.509090000000     0.192510000000    -0.224468   
N65      N      0.522710000000     0.698060000000     0.433670000000    -0.220429   
N66      N      0.569030000000     0.754060000000     0.446240000000    -0.223045   
N67      N      0.504520000000     0.872150000000     0.434790000000    -0.224845   
N68      N      0.019670000000     0.945420000000     0.430500000000    -0.221678   
N69      N      0.083720000000     0.968900000000     0.153420000000    -0.220097   
N70      N      0.101270000000     0.967810000000     0.227840000000    -0.219572   
N71      N      0.569170000000     0.714360000000     0.271150000000    -0.218077   
N72      N      0.039360000000     0.738100000000     0.205560000000    -0.219077   
N73      N      0.395800000000     0.946940000000     0.016700000000    -0.219702   
N74      N      0.425890000000     0.909230000000     0.074000000000    -0.221805   
N75      N      0.480200000000     0.677700000000     0.070290000000    -0.220639   
N76      N      0.454930000000     0.644710000000     0.630420000000    -0.22153    
N77      N      0.174110000000     0.905230000000     0.548310000000    -0.219018   
N78      N      0.211440000000     0.951320000000     0.095090000000    -0.219382   
N79      N      0.252310000000     0.706870000000     0.616990000000    -0.220464   
N80      N      0.195370000000     0.755280000000     0.625730000000    -0.21992    
N81      N      0.366870000000     0.110100000000     0.950980000000    -0.218426   
N82      N      0.405920000000     0.563950000000     0.908110000000    -0.217985   
N83      N      0.147340000000     0.053740000000     0.960900000000    -0.221088   
N84      N      0.201050000000     0.097280000000     0.985300000000    -0.220603   
N85      N      0.194300000000     0.071530000000     0.786670000000    -0.221267   
N86      N      0.248390000000     0.599980000000     0.740520000000    -0.222181   
N87      N      0.462060000000     0.550590000000     0.719950000000    -0.222407   
N88      N      0.407000000000     0.509930000000     0.692930000000    -0.224451   
N89      N      0.523310000000     0.697930000000     0.933960000000    -0.220428   
N90      N      0.569820000000     0.753730000000     0.946610000000    -0.22317    
N91      N      0.506520000000     0.871910000000     0.934620000000    -0.224743   
N92      N      0.021230000000     0.945260000000     0.930370000000    -0.220437   
N93      N      0.082490000000     0.968810000000     0.653350000000    -0.219988   
N94      N      0.101170000000     0.967920000000     0.727470000000    -0.219622   
N95      N      0.569000000000     0.714470000000     0.770580000000    -0.218013   
N96      N      0.038450000000     0.738320000000     0.705370000000    -0.219186   
N97      N      0.893660000000     0.445430000000     0.516670000000    -0.219503   
N98      N      0.924230000000     0.408470000000     0.574230000000    -0.221634   
N99      N      0.980370000000     0.176970000000     0.567520000000    -0.219083   
N100     N      0.954720000000     0.144950000000     0.132390000000    -0.221852   
N101     N      0.676610000000     0.404290000000     0.049250000000    -0.219268   
N102     N      0.711320000000     0.451170000000     0.595430000000    -0.219174   
N103     N      0.753130000000     0.206530000000     0.118040000000    -0.220626   
N104     N      0.696290000000     0.255100000000     0.126280000000    -0.220003   
N105     N      0.867230000000     0.609880000000     0.451620000000    -0.21836    
N106     N      0.904620000000     0.063660000000     0.406560000000    -0.217773   
N107     N      0.647030000000     0.553920000000     0.461260000000    -0.221091   
N108     N      0.700380000000     0.597730000000     0.485950000000    -0.220664   
N109     N      0.694270000000     0.572150000000     0.286760000000    -0.221152   
N110     N      0.748180000000     0.095020000000     0.240590000000    -0.222171   
N111     N      0.962980000000     0.050410000000     0.219330000000    -0.222699   
N112     N      0.908570000000     0.009230000000     0.191720000000    -0.224068   
N113     N      0.022810000000     0.198080000000     0.433720000000    -0.220542   
N114     N      0.069500000000     0.253720000000     0.446490000000    -0.223086   
N115     N      0.005910000000     0.372390000000     0.434590000000    -0.225478   
N116     N      0.520680000000     0.445290000000     0.429940000000    -0.220509   
N117     N      0.583730000000     0.468820000000     0.153350000000    -0.219999   
N118     N      0.601560000000     0.467870000000     0.227710000000    -0.219627   
N119     N      0.069000000000     0.214330000000     0.270690000000    -0.218247   
N120     N      0.540930000000     0.237100000000     0.205210000000    -0.218977   
N121     N      0.895300000000     0.446700000000     0.016530000000    -0.219646   
N122     N      0.925970000000     0.409350000000     0.073760000000    -0.221729   
N123     N      0.979990000000     0.178060000000     0.070130000000    -0.219048   
N124     N      0.954540000000     0.144940000000     0.630130000000    -0.221721   
N125     N      0.674770000000     0.405360000000     0.548760000000    -0.219082   
N126     N      0.711990000000     0.451250000000     0.095870000000    -0.219533   
N127     N      0.752270000000     0.206570000000     0.617060000000    -0.220486   
N128     N      0.695410000000     0.255100000000     0.625580000000    -0.219885   
N129     N      0.867490000000     0.610190000000     0.951800000000    -0.218369   
N130     N      0.905310000000     0.063870000000     0.907250000000    -0.217682   
N131     N      0.647970000000     0.554020000000     0.960770000000    -0.221127   
N132     N      0.701230000000     0.597720000000     0.985950000000    -0.220591   
N133     N      0.694480000000     0.573220000000     0.786150000000    -0.221007   
N134     N      0.748250000000     0.096690000000     0.740100000000    -0.222177   
N135     N      0.962370000000     0.051140000000     0.719500000000    -0.222632   
N136     N      0.907750000000     0.010030000000     0.692190000000    -0.224101   
N137     N      0.023410000000     0.197950000000     0.934000000000    -0.220482   
N138     N      0.070280000000     0.253390000000     0.946850000000    -0.223086   
N139     N      0.007870000000     0.372180000000     0.934440000000    -0.225548   
N140     N      0.522220000000     0.445150000000     0.929820000000    -0.220649   
N141     N      0.582480000000     0.468740000000     0.653250000000    -0.219944   
N142     N      0.601420000000     0.467970000000     0.727310000000    -0.219672   
N143     N      0.068800000000     0.214430000000     0.770090000000    -0.218239   
N144     N      0.540050000000     0.237290000000     0.705000000000    -0.219      
N145     N      0.894100000000     0.945380000000     0.516990000000    -0.219524   
N146     N      0.923800000000     0.907980000000     0.574740000000    -0.221567   
N147     N      0.980690000000     0.676490000000     0.567480000000    -0.219056   
N148     N      0.955130000000     0.644690000000     0.132520000000    -0.221738   
N149     N      0.676210000000     0.904010000000     0.048740000000    -0.21929    
N150     N      0.710860000000     0.951200000000     0.594630000000    -0.219125   
N151     N      0.753280000000     0.706840000000     0.117570000000    -0.220577   
N152     N      0.696360000000     0.755270000000     0.126040000000    -0.219903   
N153     N      0.866870000000     0.109770000000     0.450940000000    -0.218392   
N154     N      0.905280000000     0.563760000000     0.407330000000    -0.217828   
N155     N      0.646380000000     0.053460000000     0.461230000000    -0.221085   
N156     N      0.700270000000     0.097060000000     0.485090000000    -0.220651   
N157     N      0.694070000000     0.070190000000     0.287120000000    -0.221328   
N158     N      0.748260000000     0.598350000000     0.240880000000    -0.222214   
N159     N      0.962490000000     0.550070000000     0.220020000000    -0.222661   
N160     N      0.907650000000     0.509250000000     0.192810000000    -0.224476   
N161     N      0.023140000000     0.698150000000     0.433840000000    -0.220488   
N162     N      0.069480000000     0.754100000000     0.446590000000    -0.223118   
N163     N      0.004460000000     0.872410000000     0.435060000000    -0.225708   
N164     N      0.519410000000     0.945290000000     0.430170000000    -0.220395   
N165     N      0.583690000000     0.968810000000     0.153200000000    -0.220067   
N166     N      0.601130000000     0.967760000000     0.227660000000    -0.219496   
N167     N      0.068980000000     0.714460000000     0.270620000000    -0.218105   
N168     N      0.540690000000     0.737290000000     0.205340000000    -0.218994   
N169     N      0.895740000000     0.946660000000     0.016830000000    -0.21973    
N170     N      0.925570000000     0.908880000000     0.074240000000    -0.22166    
N171     N      0.980330000000     0.677560000000     0.070090000000    -0.218972   
N172     N      0.954910000000     0.644710000000     0.630240000000    -0.221666   
N173     N      0.674340000000     0.905110000000     0.548240000000    -0.219042   
N174     N      0.711570000000     0.951220000000     0.095090000000    -0.219336   
N175     N      0.752390000000     0.706840000000     0.616630000000    -0.220453   
N176     N      0.695450000000     0.755250000000     0.625370000000    -0.219889   
N177     N      0.867090000000     0.110080000000     0.951120000000    -0.21839    
N178     N      0.905980000000     0.563970000000     0.908010000000    -0.217858   
N179     N      0.647300000000     0.053550000000     0.960790000000    -0.221105   
N180     N      0.701080000000     0.097040000000     0.985120000000    -0.220602   
N181     N      0.694270000000     0.071390000000     0.786530000000    -0.221258   
N182     N      0.748350000000     0.599860000000     0.740400000000    -0.222179   
N183     N      0.961940000000     0.550850000000     0.720150000000    -0.222728   
N184     N      0.906910000000     0.510080000000     0.693240000000    -0.224497   
N185     N      0.023750000000     0.698020000000     0.934120000000    -0.220511   
N186     N      0.070280000000     0.753770000000     0.946940000000    -0.223161   
N187     N      0.006450000000     0.872170000000     0.934880000000    -0.225587   
N188     N      0.520950000000     0.945130000000     0.930040000000    -0.220451   
N189     N      0.582440000000     0.968730000000     0.653130000000    -0.219947   
N190     N      0.601020000000     0.967860000000     0.727290000000    -0.219539   
N191     N      0.068800000000     0.714560000000     0.770030000000    -0.218216   
N192     N      0.539800000000     0.737480000000     0.705140000000    -0.219039   
O1       O      0.581700000000     0.145540000000     0.282420000000    -0.382961   
O2       O      0.086600000000     0.578330000000     0.433930000000    -0.379867   
O3       O      0.510610000000     0.165540000000     0.369630000000    -0.373094   
O4       O      0.144290000000     0.540540000000     0.326770000000    -0.365727   
O5       O      0.025720000000     0.128030000000     0.428120000000    -0.381917   
O6       O      0.127910000000     0.089200000000     0.279850000000    -0.373867   
O7       O      0.119740000000     0.526220000000     0.401400000000    -0.369749   
O8       O      0.519270000000     0.169540000000     0.297640000000    -0.35818    
O9       O      0.584860000000     0.535310000000     0.245600000000    -0.353736   
O10      O      0.474040000000     0.557630000000     0.408640000000    -0.354815   
O11      O      0.470380000000     0.082170000000     0.284020000000    -0.369425   
O12      O      0.059140000000     0.478150000000     0.379510000000    -0.368253   
O13      O      0.023890000000     0.515950000000     0.427070000000    -0.356962   
O14      O      0.523570000000     0.077300000000     0.239590000000    -0.378949   
O15      O      0.090490000000     0.486590000000     0.296610000000    -0.369849   
O16      O      0.446020000000     0.103560000000     0.362680000000    -0.356076   
O17      O      0.035230000000     0.063130000000     0.335450000000    -0.590089   
O18      O      0.057730000000     0.243020000000     0.136050000000    -0.362      
O19      O      0.493470000000     0.401320000000     0.576220000000    -0.369717   
O20      O      0.094860000000     0.398020000000     0.153240000000    -0.366699   
O21      O      0.480470000000     0.246330000000     0.553150000000    -0.375283   
O22      O      0.558880000000     0.428090000000     0.100240000000    -0.362281   
O23      O      0.538350000000     0.216370000000     0.077870000000    -0.354939   
O24      O      0.454980000000     0.346740000000     0.556490000000    -0.36931    
O25      O      0.070450000000     0.297890000000     0.178490000000    -0.365137   
O26      O      0.087340000000     0.267140000000     0.515580000000    -0.395205   
O27      O      0.107000000000     0.390600000000     0.543440000000    -0.379745   
O28      O      0.146270000000     0.302870000000     0.141360000000    -0.364849   
O29      O      0.488770000000     0.333740000000     0.492130000000    -0.356788   
O30      O      0.538870000000     0.381010000000     0.498280000000    -0.374784   
O31      O      0.135390000000     0.254830000000     0.090470000000    -0.377781   
O32      O      0.521780000000     0.273580000000     0.495590000000    -0.363466   
O33      O      0.141520000000     0.370510000000     0.103310000000    -0.35807    
O34      O      0.546010000000     0.321560000000     0.092700000000    -0.610427   
O35      O      0.389830000000     0.023010000000     0.123110000000    -0.374663   
O36      O      0.228060000000     0.518470000000     0.609970000000    -0.372874   
O37      O      0.301520000000     0.102550000000     0.195440000000    -0.365594   
O38      O      0.334510000000     0.480760000000     0.532060000000    -0.361989   
O39      O      0.241160000000     0.583890000000     0.169450000000    -0.362667   
O40      O      0.395190000000     0.515150000000     0.036280000000    -0.367046   
O41      O      0.259840000000     0.486260000000     0.555760000000    -0.360849   
O42      O      0.369740000000     0.065820000000     0.175360000000    -0.354912   
O43      O      0.373540000000     0.097220000000     0.521620000000    -0.389218   
O44      O      0.242180000000     0.136580000000     0.607250000000    -0.373928   
O45      O      0.387910000000     0.130030000000     0.146240000000    -0.360518   
O46      O      0.261160000000     0.568840000000     0.503640000000    -0.375925   
O47      O      0.216830000000     0.584050000000     0.555750000000    -0.365553   
O48      O      0.419030000000     0.099420000000     0.090830000000    -0.371383   
O49      O      0.326820000000     0.561020000000     0.486200000000    -0.354008   
O50      O      0.303630000000     0.158870000000     0.131620000000    -0.382113   
O51      O      0.315380000000     0.553990000000     0.100220000000    -0.581393   
O52      O      0.581670000000     0.145670000000     0.781760000000    -0.382539   
O53      O      0.087360000000     0.578320000000     0.933780000000    -0.379635   
O54      O      0.511180000000     0.165550000000     0.869860000000    -0.373276   
O55      O      0.144780000000     0.541170000000     0.826140000000    -0.365837   
O56      O      0.026300000000     0.127910000000     0.928250000000    -0.381425   
O57      O      0.127930000000     0.089750000000     0.779240000000    -0.373666   
O58      O      0.120650000000     0.526550000000     0.900850000000    -0.369634   
O59      O      0.519380000000     0.169640000000     0.797640000000    -0.358316   
O60      O      0.584740000000     0.535410000000     0.745220000000    -0.354196   
O61      O      0.474730000000     0.557770000000     0.908990000000    -0.354902   
O62      O      0.470320000000     0.082680000000     0.784200000000    -0.369577   
O63      O      0.060290000000     0.478280000000     0.879250000000    -0.368246   
O64      O      0.024920000000     0.515830000000     0.926920000000    -0.35724    
O65      O      0.523310000000     0.077380000000     0.739540000000    -0.378755   
O66      O      0.090970000000     0.486840000000     0.796290000000    -0.36995    
O67      O      0.446530000000     0.103630000000     0.863080000000    -0.356065   
O68      O      0.035660000000     0.063220000000     0.835350000000    -0.589036   
O69      O      0.056450000000     0.243190000000     0.635730000000    -0.362513   
O70      O      0.495170000000     0.401790000000     0.075940000000    -0.36992    
O71      O      0.093930000000     0.397990000000     0.652890000000    -0.366157   
O72      O      0.480860000000     0.247130000000     0.054650000000    -0.376603   
O73      O      0.557230000000     0.427990000000     0.600370000000    -0.362102   
O74      O      0.537960000000     0.216030000000     0.576970000000    -0.355476   
O75      O      0.456370000000     0.347400000000     0.056320000000    -0.369804   
O76      O      0.069740000000     0.297910000000     0.678180000000    -0.365127   
O77      O      0.088250000000     0.266890000000     0.015890000000    -0.395461   
O78      O      0.108730000000     0.390100000000     0.043650000000    -0.38012    
O79      O      0.145460000000     0.302960000000     0.640690000000    -0.364673   
O80      O      0.490430000000     0.333740000000     0.992040000000    -0.357013   
O81      O      0.540630000000     0.380910000000     0.998240000000    -0.374943   
O82      O      0.134390000000     0.254750000000     0.590010000000    -0.377583   
O83      O      0.522670000000     0.273450000000     0.996000000000    -0.363989   
O84      O      0.140240000000     0.370890000000     0.602770000000    -0.357986   
O85      O      0.544810000000     0.321400000000     0.592590000000    -0.609178   
O86      O      0.389040000000     0.022800000000     0.623350000000    -0.375039   
O87      O      0.228380000000     0.518710000000     0.110030000000    -0.372729   
O88      O      0.301370000000     0.103660000000     0.694550000000    -0.365031   
O89      O      0.335800000000     0.481250000000     0.032220000000    -0.362184   
O90      O      0.240920000000     0.584400000000     0.669220000000    -0.36265    
O91      O      0.394280000000     0.513910000000     0.536250000000    -0.367725   
O92      O      0.260770000000     0.486200000000     0.056400000000    -0.361256   
O93      O      0.369370000000     0.066680000000     0.674840000000    -0.355051   
O94      O      0.373630000000     0.098010000000     0.021910000000    -0.38933    
O95      O      0.242930000000     0.136660000000     0.107610000000    -0.374643   
O96      O      0.387660000000     0.130570000000     0.644370000000    -0.360409   
O97      O      0.261870000000     0.568690000000     0.003840000000    -0.376083   
O98      O      0.217520000000     0.584220000000     0.055830000000    -0.365367   
O99      O      0.418720000000     0.098560000000     0.589760000000    -0.371452   
O100     O      0.327420000000     0.561120000000     0.986530000000    -0.353537   
O101     O      0.303090000000     0.159160000000     0.630300000000    -0.381519   
O102     O      0.314810000000     0.553910000000     0.599830000000    -0.581406   
O103     O      0.581730000000     0.645630000000     0.282080000000    -0.382364   
O104     O      0.086100000000     0.078120000000     0.433770000000    -0.380052   
O105     O      0.510920000000     0.665630000000     0.369780000000    -0.372908   
O106     O      0.143700000000     0.039430000000     0.327300000000    -0.365791   
O107     O      0.026250000000     0.628130000000     0.428180000000    -0.381759   
O108     O      0.127850000000     0.590150000000     0.279390000000    -0.373557   
O109     O      0.118800000000     0.025510000000     0.401620000000    -0.369662   
O110     O      0.519420000000     0.669640000000     0.297820000000    -0.358191   
O111     O      0.584740000000     0.035230000000     0.245760000000    -0.353231   
O112     O      0.473400000000     0.057470000000     0.408200000000    -0.354783   
O113     O      0.470320000000     0.582200000000     0.284480000000    -0.369301   
O114     O      0.057950000000     0.977840000000     0.379640000000    -0.368787   
O115     O      0.022980000000     0.015940000000     0.427190000000    -0.356412   
O116     O      0.523270000000     0.576830000000     0.239780000000    -0.379183   
O117     O      0.089670000000     0.986250000000     0.296560000000    -0.370247   
O118     O      0.446430000000     0.603580000000     0.363130000000    -0.355785   
O119     O      0.035660000000     0.563230000000     0.335470000000    -0.588627   
O120     O      0.057460000000     0.743090000000     0.136160000000    -0.362158   
O121     O      0.493070000000     0.900980000000     0.576670000000    -0.369906   
O122     O      0.094740000000     0.898010000000     0.153190000000    -0.36677    
O123     O      0.480520000000     0.745880000000     0.553230000000    -0.375123   
O124     O      0.558780000000     0.928020000000     0.100170000000    -0.362486   
O125     O      0.538540000000     0.716120000000     0.077940000000    -0.355019   
O126     O      0.454680000000     0.846320000000     0.556930000000    -0.368851   
O127     O      0.070330000000     0.797960000000     0.178570000000    -0.365216   
O128     O      0.087270000000     0.767390000000     0.515710000000    -0.395358   
O129     O      0.106530000000     0.890320000000     0.543240000000    -0.380026   
O130     O      0.146260000000     0.802970000000     0.141240000000    -0.364783   
O131     O      0.487960000000     0.833560000000     0.492630000000    -0.356443   
O132     O      0.537970000000     0.880990000000     0.498490000000    -0.374499   
O133     O      0.135340000000     0.754860000000     0.090420000000    -0.377806   
O134     O      0.521710000000     0.773560000000     0.495770000000    -0.363824   
O135     O      0.141280000000     0.870430000000     0.103050000000    -0.358342   
O136     O      0.545840000000     0.821410000000     0.092870000000    -0.610199   
O137     O      0.389230000000     0.522780000000     0.124060000000    -0.375254   
O138     O      0.227690000000     0.018470000000     0.609050000000    -0.371819   
O139     O      0.301620000000     0.604410000000     0.195580000000    -0.365432   
O140     O      0.334780000000     0.980510000000     0.532040000000    -0.362456   
O141     O      0.241140000000     0.082440000000     0.168800000000    -0.363199   
O142     O      0.395250000000     0.015310000000     0.035830000000    -0.366351   
O143     O      0.259730000000     0.986000000000     0.555160000000    -0.360984   
O144     O      0.369500000000     0.566210000000     0.175910000000    -0.355286   
O145     O      0.374140000000     0.596860000000     0.522210000000    -0.388531   
O146     O      0.242170000000     0.636780000000     0.607640000000    -0.373151   
O147     O      0.388240000000     0.630190000000     0.146370000000    -0.360435   
O148     O      0.260990000000     0.068010000000     0.502820000000    -0.375865   
O149     O      0.216900000000     0.083970000000     0.554930000000    -0.365651   
O150     O      0.419340000000     0.598960000000     0.091320000000    -0.371368   
O151     O      0.326850000000     0.060580000000     0.485580000000    -0.354469   
O152     O      0.303840000000     0.659320000000     0.131220000000    -0.381829   
O153     O      0.315350000000     0.053800000000     0.099600000000    -0.581891   
O154     O      0.581720000000     0.645770000000     0.781450000000    -0.381946   
O155     O      0.086840000000     0.078110000000     0.933640000000    -0.379863   
O156     O      0.511510000000     0.665640000000     0.870010000000    -0.373188   
O157     O      0.144190000000     0.040140000000     0.826680000000    -0.36596    
O158     O      0.026850000000     0.628010000000     0.928310000000    -0.381491   
O159     O      0.127900000000     0.590650000000     0.778790000000    -0.373232   
O160     O      0.119700000000     0.025840000000     0.901080000000    -0.369458   
O161     O      0.519540000000     0.669750000000     0.797830000000    -0.358178   
O162     O      0.584610000000     0.035330000000     0.745370000000    -0.353489   
O163     O      0.474070000000     0.057610000000     0.908570000000    -0.35482    
O164     O      0.470310000000     0.582730000000     0.784640000000    -0.369716   
O165     O      0.059110000000     0.977970000000     0.879390000000    -0.368578   
O166     O      0.024000000000     0.015810000000     0.927030000000    -0.356605   
O167     O      0.523060000000     0.576950000000     0.739730000000    -0.378948   
O168     O      0.090190000000     0.986500000000     0.796260000000    -0.370171   
O169     O      0.446970000000     0.603660000000     0.863510000000    -0.355776   
O170     O      0.036110000000     0.563330000000     0.835360000000    -0.588643   
O171     O      0.056170000000     0.743280000000     0.635850000000    -0.36285    
O172     O      0.494800000000     0.901460000000     0.076350000000    -0.370139   
O173     O      0.093810000000     0.897980000000     0.652840000000    -0.366321   
O174     O      0.480940000000     0.746670000000     0.054730000000    -0.376497   
O175     O      0.557100000000     0.927930000000     0.600330000000    -0.362245   
O176     O      0.538130000000     0.715800000000     0.577040000000    -0.355686   
O177     O      0.456080000000     0.846990000000     0.056750000000    -0.369387   
O178     O      0.069630000000     0.797990000000     0.678260000000    -0.365274   
O179     O      0.088190000000     0.767140000000     0.016010000000    -0.39566    
O180     O      0.108290000000     0.889800000000     0.043450000000    -0.380436   
O181     O      0.145430000000     0.803050000000     0.640570000000    -0.364645   
O182     O      0.489640000000     0.833550000000     0.992530000000    -0.356825   
O183     O      0.539750000000     0.880870000000     0.998430000000    -0.3747     
O184     O      0.134310000000     0.754770000000     0.589980000000    -0.377776   
O185     O      0.522620000000     0.773420000000     0.996170000000    -0.364388   
O186     O      0.139990000000     0.870820000000     0.602500000000    -0.358217   
O187     O      0.544620000000     0.821260000000     0.592770000000    -0.608885   
O188     O      0.388470000000     0.522590000000     0.624280000000    -0.375637   
O189     O      0.228030000000     0.018660000000     0.109130000000    -0.371907   
O190     O      0.301470000000     0.605440000000     0.694680000000    -0.36486    
O191     O      0.336070000000     0.981010000000     0.032190000000    -0.362766   
O192     O      0.240890000000     0.083060000000     0.668550000000    -0.363216   
O193     O      0.394360000000     0.014060000000     0.535800000000    -0.366943   
O194     O      0.260660000000     0.985910000000     0.055810000000    -0.361308   
O195     O      0.369160000000     0.567070000000     0.675380000000    -0.355393   
O196     O      0.374270000000     0.597640000000     0.022510000000    -0.388748   
O197     O      0.242940000000     0.636900000000     0.107980000000    -0.373961   
O198     O      0.387960000000     0.630730000000     0.644490000000    -0.360403   
O199     O      0.261680000000     0.067860000000     0.003040000000    -0.375912   
O200     O      0.217580000000     0.084130000000     0.055040000000    -0.365631   
O201     O      0.419000000000     0.598120000000     0.590240000000    -0.37133    
O202     O      0.327430000000     0.060670000000     0.985910000000    -0.353953   
O203     O      0.303270000000     0.659570000000     0.629930000000    -0.381122   
O204     O      0.314790000000     0.053730000000     0.599210000000    -0.581865   
O205     O      0.081620000000     0.145650000000     0.281910000000    -0.382615   
O206     O      0.586590000000     0.578190000000     0.433790000000    -0.380179   
O207     O      0.011000000000     0.165710000000     0.369790000000    -0.374668   
O208     O      0.644240000000     0.540370000000     0.326630000000    -0.365678   
O209     O      0.525580000000     0.127960000000     0.427960000000    -0.381499   
O210     O      0.627890000000     0.089090000000     0.279740000000    -0.37381    
O211     O      0.619650000000     0.526010000000     0.401300000000    -0.369815   
O212     O      0.019340000000     0.169740000000     0.297770000000    -0.359541   
O213     O      0.084960000000     0.535360000000     0.245730000000    -0.35405    
O214     O      0.974090000000     0.557620000000     0.408570000000    -0.353441   
O215     O      0.970380000000     0.082430000000     0.284220000000    -0.369935   
O216     O      0.559010000000     0.478020000000     0.379330000000    -0.368235   
O217     O      0.523650000000     0.515820000000     0.426800000000    -0.356259   
O218     O      0.023500000000     0.077470000000     0.239710000000    -0.381426   
O219     O      0.590390000000     0.486490000000     0.296440000000    -0.36967    
O220     O      0.946120000000     0.103760000000     0.362800000000    -0.35607    
O221     O      0.535200000000     0.063000000000     0.335350000000    -0.589099   
O222     O      0.558620000000     0.242570000000     0.135750000000    -0.361418   
O223     O      0.993200000000     0.401170000000     0.576620000000    -0.367738   
O224     O      0.594800000000     0.397940000000     0.153040000000    -0.366769   
O225     O      0.980600000000     0.246230000000     0.553040000000    -0.370942   
O226     O      0.058740000000     0.428160000000     0.100590000000    -0.362805   
O227     O      0.038410000000     0.216310000000     0.078000000000    -0.353993   
O228     O      0.954910000000     0.346550000000     0.556580000000    -0.367639   
O229     O      0.570680000000     0.297610000000     0.178190000000    -0.365047   
O230     O      0.587120000000     0.267170000000     0.515130000000    -0.395536   
O231     O      0.607230000000     0.390460000000     0.543190000000    -0.380042   
O232     O      0.646320000000     0.302800000000     0.141070000000    -0.364692   
O233     O      0.988900000000     0.333700000000     0.492240000000    -0.353033   
O234     O      0.038680000000     0.381300000000     0.498660000000    -0.374004   
O235     O      0.635480000000     0.254860000000     0.090060000000    -0.3776     
O236     O      0.022100000000     0.273680000000     0.495730000000    -0.363861   
O237     O      0.641600000000     0.370450000000     0.103190000000    -0.358286   
O238     O      0.045890000000     0.321580000000     0.093010000000    -0.609154   
O239     O      0.889780000000     0.022940000000     0.123350000000    -0.374697   
O240     O      0.728080000000     0.518410000000     0.609890000000    -0.372733   
O241     O      0.801490000000     0.102530000000     0.195310000000    -0.365557   
O242     O      0.834500000000     0.480590000000     0.532060000000    -0.361767   
O243     O      0.741140000000     0.583820000000     0.169300000000    -0.362743   
O244     O      0.895240000000     0.514850000000     0.036430000000    -0.367011   
O245     O      0.759930000000     0.486160000000     0.555740000000    -0.360754   
O246     O      0.869690000000     0.065970000000     0.175410000000    -0.354846   
O247     O      0.873750000000     0.097020000000     0.521740000000    -0.388971   
O248     O      0.742200000000     0.136560000000     0.607020000000    -0.374001   
O249     O      0.887890000000     0.130100000000     0.146020000000    -0.3605     
O250     O      0.761210000000     0.568660000000     0.503530000000    -0.375912   
O251     O      0.716850000000     0.583910000000     0.555590000000    -0.365483   
O252     O      0.919090000000     0.099230000000     0.090820000000    -0.37122    
O253     O      0.826950000000     0.560980000000     0.486220000000    -0.354065   
O254     O      0.803660000000     0.158870000000     0.131340000000    -0.382226   
O255     O      0.815380000000     0.553890000000     0.100180000000    -0.581399   
O256     O      0.081570000000     0.145770000000     0.781230000000    -0.382104   
O257     O      0.587340000000     0.578180000000     0.933640000000    -0.379885   
O258     O      0.011580000000     0.165710000000     0.870010000000    -0.373518   
O259     O      0.644720000000     0.541000000000     0.826000000000    -0.365891   
O260     O      0.526140000000     0.127830000000     0.928100000000    -0.38115    
O261     O      0.627900000000     0.089650000000     0.779140000000    -0.373569   
O262     O      0.620540000000     0.526330000000     0.900750000000    -0.369769   
O263     O      0.019460000000     0.169840000000     0.797770000000    -0.358366   
O264     O      0.084840000000     0.535460000000     0.745340000000    -0.354393   
O265     O      0.974790000000     0.557750000000     0.908920000000    -0.353309   
O266     O      0.970330000000     0.082950000000     0.784410000000    -0.368691   
O267     O      0.560160000000     0.478140000000     0.879080000000    -0.368139   
O268     O      0.524660000000     0.515690000000     0.926640000000    -0.356659   
O269     O      0.023240000000     0.077530000000     0.739660000000    -0.380931   
O270     O      0.590850000000     0.486730000000     0.796110000000    -0.369757   
O271     O      0.946650000000     0.103830000000     0.863190000000    -0.354659   
O272     O      0.535620000000     0.063090000000     0.835260000000    -0.588995   
O273     O      0.557370000000     0.242740000000     0.635420000000    -0.362025   
O274     O      0.994880000000     0.401630000000     0.076340000000    -0.368091   
O275     O      0.593850000000     0.397910000000     0.652680000000    -0.366296   
O276     O      0.981000000000     0.247020000000     0.054510000000    -0.372375   
O277     O      0.057110000000     0.428050000000     0.600730000000    -0.362704   
O278     O      0.038020000000     0.215980000000     0.577120000000    -0.354423   
O279     O      0.956290000000     0.347190000000     0.056410000000    -0.368263   
O280     O      0.569970000000     0.297630000000     0.677870000000    -0.365112   
O281     O      0.588020000000     0.266900000000     0.015460000000    -0.3958     
O282     O      0.608980000000     0.389950000000     0.043410000000    -0.380465   
O283     O      0.645500000000     0.302890000000     0.640400000000    -0.364601   
O284     O      0.990550000000     0.333700000000     0.992140000000    -0.353368   
O285     O      0.040410000000     0.381200000000     0.998610000000    -0.374269   
O286     O      0.634480000000     0.254790000000     0.589600000000    -0.377633   
O287     O      0.022990000000     0.273550000000     0.996120000000    -0.364286   
O288     O      0.640320000000     0.370840000000     0.602640000000    -0.358174   
O289     O      0.044690000000     0.321430000000     0.592910000000    -0.607983   
O290     O      0.888980000000     0.022730000000     0.623610000000    -0.37509    
O291     O      0.728420000000     0.518630000000     0.109950000000    -0.372676   
O292     O      0.801340000000     0.103640000000     0.694430000000    -0.364969   
O293     O      0.835790000000     0.481080000000     0.032220000000    -0.362047   
O294     O      0.740890000000     0.584330000000     0.669080000000    -0.36276    
O295     O      0.894340000000     0.513620000000     0.536410000000    -0.367493   
O296     O      0.760860000000     0.486080000000     0.056380000000    -0.361048   
O297     O      0.869310000000     0.066830000000     0.674910000000    -0.354956   
O298     O      0.873840000000     0.097810000000     0.022020000000    -0.389215   
O299     O      0.742950000000     0.136640000000     0.107380000000    -0.37474    
O300     O      0.887630000000     0.130640000000     0.644160000000    -0.360448   
O301     O      0.761930000000     0.568490000000     0.003720000000    -0.376005   
O302     O      0.717540000000     0.584070000000     0.055660000000    -0.365376   
O303     O      0.918770000000     0.098370000000     0.589760000000    -0.371211   
O304     O      0.827550000000     0.561070000000     0.986540000000    -0.353654   
O305     O      0.803110000000     0.159160000000     0.630040000000    -0.381547   
O306     O      0.814810000000     0.553820000000     0.599810000000    -0.581477   
O307     O      0.081630000000     0.645740000000     0.281550000000    -0.38196    
O308     O      0.586090000000     0.078000000000     0.433630000000    -0.380346   
O309     O      0.011290000000     0.665790000000     0.369910000000    -0.373027   
O310     O      0.643670000000     0.039290000000     0.327160000000    -0.365737   
O311     O      0.526140000000     0.628050000000     0.428040000000    -0.381382   
O312     O      0.627820000000     0.590020000000     0.279280000000    -0.373281   
O313     O      0.618740000000     0.025330000000     0.401520000000    -0.36964    
O314     O      0.019480000000     0.669830000000     0.297930000000    -0.358184   
O315     O      0.084810000000     0.035290000000     0.245880000000    -0.353451   
O316     O      0.973430000000     0.057460000000     0.408130000000    -0.353529   
O317     O      0.970340000000     0.582450000000     0.284670000000    -0.368493   
O318     O      0.557870000000     0.977720000000     0.379480000000    -0.368784   
O319     O      0.522780000000     0.015810000000     0.426940000000    -0.355515   
O320     O      0.023220000000     0.576980000000     0.239890000000    -0.381343   
O321     O      0.589600000000     0.986150000000     0.296410000000    -0.369973   
O322     O      0.946550000000     0.603760000000     0.363230000000    -0.354494   
O323     O      0.535610000000     0.563100000000     0.335370000000    -0.588626   
O324     O      0.558390000000     0.742640000000     0.135870000000    -0.361699   
O325     O      0.992780000000     0.900840000000     0.577050000000    -0.368068   
O326     O      0.594710000000     0.897930000000     0.152990000000    -0.366967   
O327     O      0.980630000000     0.745790000000     0.553130000000    -0.3708     
O328     O      0.058620000000     0.928090000000     0.100500000000    -0.362932   
O329     O      0.038580000000     0.716070000000     0.078070000000    -0.353989   
O330     O      0.954590000000     0.846140000000     0.557020000000    -0.367377   
O331     O      0.570600000000     0.797670000000     0.178270000000    -0.365237   
O332     O      0.587080000000     0.767430000000     0.515280000000    -0.395633   
O333     O      0.606770000000     0.890200000000     0.543000000000    -0.380216   
O334     O      0.646330000000     0.802880000000     0.140960000000    -0.364708   
O335     O      0.988050000000     0.833520000000     0.492740000000    -0.35297    
O336     O      0.037740000000     0.881250000000     0.498860000000    -0.373995   
O337     O      0.635450000000     0.754890000000     0.090010000000    -0.377626   
O338     O      0.021990000000     0.773660000000     0.495900000000    -0.364205   
O339     O      0.641390000000     0.870370000000     0.102940000000    -0.358474   
O340     O      0.045700000000     0.821430000000     0.093180000000    -0.608884   
O341     O      0.889200000000     0.522690000000     0.124290000000    -0.375276   
O342     O      0.727730000000     0.018420000000     0.608980000000    -0.37191    
O343     O      0.801590000000     0.604330000000     0.195450000000    -0.365335   
O344     O      0.834760000000     0.980370000000     0.532040000000    -0.362365   
O345     O      0.741120000000     0.082400000000     0.168660000000    -0.363277   
O346     O      0.895300000000     0.015020000000     0.035980000000    -0.366249   
O347     O      0.759820000000     0.985920000000     0.555150000000    -0.361015   
O348     O      0.869460000000     0.566330000000     0.175960000000    -0.355221   
O349     O      0.874340000000     0.596650000000     0.522320000000    -0.388286   
O350     O      0.742200000000     0.636740000000     0.607410000000    -0.373212   
O351     O      0.888210000000     0.630230000000     0.146160000000    -0.360426   
O352     O      0.761040000000     0.067870000000     0.502720000000    -0.375915   
O353     O      0.716920000000     0.083860000000     0.554790000000    -0.365682   
O354     O      0.919400000000     0.598760000000     0.091300000000    -0.371094   
O355     O      0.826970000000     0.060570000000     0.485610000000    -0.354492   
O356     O      0.803880000000     0.659280000000     0.130960000000    -0.381887   
O357     O      0.815360000000     0.053730000000     0.099560000000    -0.581901   
O358     O      0.081610000000     0.645870000000     0.780890000000    -0.381615   
O359     O      0.586820000000     0.077990000000     0.933500000000    -0.380102   
O360     O      0.011890000000     0.665800000000     0.870130000000    -0.373448   
O361     O      0.644160000000     0.039990000000     0.826540000000    -0.365859   
O362     O      0.526720000000     0.627920000000     0.928170000000    -0.381122   
O363     O      0.627870000000     0.590530000000     0.778700000000    -0.373158   
O364     O      0.619630000000     0.025660000000     0.900990000000    -0.36958    
O365     O      0.019620000000     0.669930000000     0.797930000000    -0.358326   
O366     O      0.084690000000     0.035380000000     0.745490000000    -0.353813   
O367     O      0.974120000000     0.057600000000     0.908500000000    -0.353267   
O368     O      0.970330000000     0.582980000000     0.784830000000    -0.368738   
O369     O      0.559020000000     0.977840000000     0.879220000000    -0.368442   
O370     O      0.523780000000     0.015680000000     0.926770000000    -0.355889   
O371     O      0.023010000000     0.577090000000     0.739840000000    -0.38124    
O372     O      0.590110000000     0.986400000000     0.796100000000    -0.369977   
O373     O      0.947090000000     0.603840000000     0.863610000000    -0.354326   
O374     O      0.536050000000     0.563190000000     0.835270000000    -0.588606   
O375     O      0.557120000000     0.742810000000     0.635550000000    -0.362329   
O376     O      0.994500000000     0.901300000000     0.076740000000    -0.368274   
O377     O      0.593770000000     0.897910000000     0.652640000000    -0.3664     
O378     O      0.981050000000     0.746560000000     0.054600000000    -0.372208   
O379     O      0.056970000000     0.927990000000     0.600660000000    -0.362878   
O380     O      0.038160000000     0.715740000000     0.577180000000    -0.354584   
O381     O      0.955980000000     0.846790000000     0.056840000000    -0.367898   
O382     O      0.569900000000     0.797700000000     0.677950000000    -0.365201   
O383     O      0.588000000000     0.767160000000     0.015590000000    -0.396002   
O384     O      0.608560000000     0.889660000000     0.043220000000    -0.380775   
O385     O      0.645500000000     0.802970000000     0.640290000000    -0.364643   
O386     O      0.989720000000     0.833510000000     0.992630000000    -0.353241   
O387     O      0.039500000000     0.881150000000     0.998790000000    -0.374068   
O388     O      0.634430000000     0.754800000000     0.589570000000    -0.37759    
O389     O      0.022900000000     0.773520000000     0.996290000000    -0.36476    
O390     O      0.640090000000     0.870770000000     0.602380000000    -0.358279   
O391     O      0.044480000000     0.821290000000     0.593090000000    -0.607564   
O392     O      0.888430000000     0.522510000000     0.624530000000    -0.375671   
O393     O      0.728070000000     0.018600000000     0.109060000000    -0.371795   
O394     O      0.801430000000     0.605360000000     0.694560000000    -0.365005   
O395     O      0.836050000000     0.980860000000     0.032190000000    -0.362701   
O396     O      0.740870000000     0.083030000000     0.668420000000    -0.363322   
O397     O      0.894410000000     0.013780000000     0.535970000000    -0.366777   
O398     O      0.760760000000     0.985830000000     0.055790000000    -0.361251   
O399     O      0.869110000000     0.567180000000     0.675440000000    -0.355443   
O400     O      0.874470000000     0.597420000000     0.022610000000    -0.388425   
O401     O      0.742980000000     0.636860000000     0.107740000000    -0.374136   
O402     O      0.887930000000     0.630770000000     0.644290000000    -0.360314   
O403     O      0.761730000000     0.067710000000     0.002930000000    -0.37599    
O404     O      0.717600000000     0.084000000000     0.054890000000    -0.365625   
O405     O      0.919050000000     0.597920000000     0.590240000000    -0.37102    
O406     O      0.827550000000     0.060660000000     0.985930000000    -0.354107   
O407     O      0.803300000000     0.659540000000     0.629690000000    -0.381245   
O408     O      0.814790000000     0.053660000000     0.599200000000    -0.581775   


