data_structure

_audit_creation_method RASPA-1.0
_audit_creation_date 2023-5-19
_audit_author_name 'Poobodin Mano'

_cell_length_a    24.3459
_cell_length_b    26.6631
_cell_length_c    26.0483
_cell_angle_alpha 90
_cell_angle_beta  90
_cell_angle_gamma 90
_cell_volume      16908.9

_symmetry_cell_setting          triclinic
_symmetry_space_group_name_Hall 'P 1'
_symmetry_space_group_name_H-M  'P 1'
_symmetry_Int_Tables_number     1

_symmetry_equiv_pos_as_xyz 'x,y,z'

loop_
_atom_site_label
_atom_site_type_symbol
_atom_site_fract_x
_atom_site_fract_y
_atom_site_fract_z
_atom_site_charge
C1       C      0.529390000000     0.435280000000     0.115320000000     0.421778   
C2       C      0.213360000000     0.163890000000     0.086490000000     0.417166   
C3       C      0.197870000000     0.459460000000     0.118070000000     0.408703   
C4       C      0.547910000000     0.136780000000     0.170200000000     0.417691   
C5       C      0.478820000000     0.136530000000     0.556330000000     0.415075   
C6       C      0.201360000000     0.488540000000     0.475550000000     0.417237   
C7       C      0.492170000000     0.501430000000     0.507610000000     0.409446   
C8       C      0.171330000000     0.124730000000     0.472160000000     0.409935   
C9       C      0.445760000000     0.366220000000     0.259790000000     0.41633    
C10      C      0.281010000000     0.210590000000     0.233380000000     0.417236   
C11      C      0.490730000000     0.246130000000     0.290540000000     0.414364   
C12      C      0.233620000000     0.339240000000     0.236750000000     0.409801   
C13      C      0.231070000000     0.371200000000     0.365000000000     0.42557    
C14      C      0.420060000000     0.213850000000     0.410430000000     0.414353   
C15      C      0.400840000000     0.420770000000     0.371360000000     0.419573   
C16      C      0.285050000000     0.166500000000     0.359290000000     0.417128   
C17      C      0.288470000000     0.195110000000     0.139930000000     0.077302   
C18      C      0.210580000000     0.108630000000     0.385890000000     0.085774   
C19      C      0.217040000000     0.371920000000     0.148040000000     0.077344   
C20      C      0.546530000000     0.218130000000     0.215670000000     0.0825344  
C21      C      0.465440000000     0.474400000000     0.420710000000     0.0773111  
C22      C      0.435630000000     0.203550000000     0.503840000000     0.0788894  
C23      C      0.196320000000     0.455550000000     0.387180000000     0.0828116  
C24      C      0.461920000000     0.391890000000     0.170810000000     0.0798802  
C25      C      0.529390000000     0.435280000000     0.615320000000     0.421858   
C26      C      0.213360000000     0.163890000000     0.586490000000     0.417379   
C27      C      0.197870000000     0.459460000000     0.618070000000     0.408821   
C28      C      0.547910000000     0.136780000000     0.670200000000     0.417655   
C29      C      0.478820000000     0.136530000000     0.056330000000     0.414968   
C30      C      0.201360000000     0.488540000000     0.975550000000     0.418897   
C31      C      0.492170000000     0.501430000000     0.007610000000     0.40629    
C32      C      0.171330000000     0.124730000000     0.972170000000     0.409878   
C33      C      0.445760000000     0.366220000000     0.759780000000     0.416342   
C34      C      0.281010000000     0.210590000000     0.733380000000     0.417215   
C35      C      0.490730000000     0.246130000000     0.790540000000     0.414365   
C36      C      0.233620000000     0.339240000000     0.736750000000     0.409709   
C37      C      0.231070000000     0.371200000000     0.865000000000     0.425642   
C38      C      0.420060000000     0.213850000000     0.910420000000     0.414488   
C39      C      0.400840000000     0.420770000000     0.871360000000     0.419629   
C40      C      0.285050000000     0.166500000000     0.859290000000     0.417189   
C41      C      0.288470000000     0.195110000000     0.639930000000     0.0773091  
C42      C      0.210580000000     0.108630000000     0.885890000000     0.0857909  
C43      C      0.217040000000     0.371920000000     0.648040000000     0.0773211  
C44      C      0.546530000000     0.218130000000     0.715670000000     0.0825253  
C45      C      0.465440000000     0.474400000000     0.920720000000     0.0772297  
C46      C      0.435630000000     0.203550000000     0.003840000000     0.0778036  
C47      C      0.196320000000     0.455550000000     0.887190000000     0.0829597  
C48      C      0.461920000000     0.391890000000     0.670810000000     0.0798882  
C49      C      0.529390000000     0.935280000000     0.115320000000     0.421855   
C50      C      0.213360000000     0.663890000000     0.086490000000     0.417168   
C51      C      0.197870000000     0.959460000000     0.118070000000     0.408753   
C52      C      0.547910000000     0.636780000000     0.170200000000     0.417691   
C53      C      0.478820000000     0.636530000000     0.556330000000     0.415076   
C54      C      0.201360000000     0.988540000000     0.475550000000     0.417282   
C55      C      0.492170000000     0.001430000000     0.507610000000     0.4094     
C56      C      0.171330000000     0.624720000000     0.472160000000     0.409939   
C57      C      0.445760000000     0.866220000000     0.259790000000     0.41633    
C58      C      0.281010000000     0.710590000000     0.233380000000     0.417251   
C59      C      0.490730000000     0.746130000000     0.290540000000     0.414363   
C60      C      0.233620000000     0.839240000000     0.236750000000     0.409796   
C61      C      0.231070000000     0.871200000000     0.365000000000     0.425562   
C62      C      0.420060000000     0.713840000000     0.410430000000     0.414321   
C63      C      0.400840000000     0.920760000000     0.371360000000     0.419552   
C64      C      0.285050000000     0.666500000000     0.359290000000     0.41714    
C65      C      0.288470000000     0.695110000000     0.139930000000     0.0773025  
C66      C      0.210580000000     0.608630000000     0.385890000000     0.085762   
C67      C      0.217040000000     0.871920000000     0.148040000000     0.0773384  
C68      C      0.546530000000     0.718130000000     0.215670000000     0.0825266  
C69      C      0.465440000000     0.974400000000     0.420710000000     0.0773293  
C70      C      0.435630000000     0.703550000000     0.503840000000     0.0788995  
C71      C      0.196320000000     0.955550000000     0.387180000000     0.0828128  
C72      C      0.461920000000     0.891890000000     0.170810000000     0.0798704  
C73      C      0.529390000000     0.935280000000     0.615320000000     0.421934   
C74      C      0.213360000000     0.663890000000     0.586490000000     0.417381   
C75      C      0.197870000000     0.959460000000     0.618070000000     0.408871   
C76      C      0.547910000000     0.636780000000     0.670200000000     0.417656   
C77      C      0.478820000000     0.636530000000     0.056330000000     0.41497    
C78      C      0.201360000000     0.988540000000     0.975550000000     0.418941   
C79      C      0.492170000000     0.001430000000     0.007610000000     0.406245   
C80      C      0.171330000000     0.624720000000     0.972170000000     0.409882   
C81      C      0.445760000000     0.866220000000     0.759780000000     0.416341   
C82      C      0.281010000000     0.710590000000     0.733380000000     0.417229   
C83      C      0.490730000000     0.746130000000     0.790540000000     0.414364   
C84      C      0.233620000000     0.839240000000     0.736750000000     0.409704   
C85      C      0.231070000000     0.871200000000     0.865000000000     0.425635   
C86      C      0.420060000000     0.713840000000     0.910420000000     0.414456   
C87      C      0.400840000000     0.920760000000     0.871360000000     0.419608   
C88      C      0.285050000000     0.666500000000     0.859290000000     0.4172     
C89      C      0.288470000000     0.695110000000     0.639930000000     0.0773095  
C90      C      0.210580000000     0.608630000000     0.885890000000     0.0857788  
C91      C      0.217040000000     0.871920000000     0.648040000000     0.0773155  
C92      C      0.546530000000     0.718130000000     0.715670000000     0.0825174  
C93      C      0.465440000000     0.974400000000     0.920720000000     0.0772482  
C94      C      0.435630000000     0.703550000000     0.003840000000     0.0778135  
C95      C      0.196320000000     0.955550000000     0.887190000000     0.0829608  
C96      C      0.461920000000     0.891890000000     0.670810000000     0.0798784  
C97      C      0.029390000000     0.435280000000     0.115320000000     0.42178    
C98      C      0.713360000000     0.163890000000     0.086490000000     0.417164   
C99      C      0.697870000000     0.459460000000     0.118070000000     0.408703   
C100     C      0.047910000000     0.136780000000     0.170200000000     0.417627   
C101     C      0.978810000000     0.136530000000     0.556330000000     0.415079   
C102     C      0.701360000000     0.488540000000     0.475550000000     0.417236   
C103     C      0.992170000000     0.501430000000     0.507610000000     0.409434   
C104     C      0.671330000000     0.124730000000     0.472160000000     0.409934   
C105     C      0.945760000000     0.366220000000     0.259790000000     0.416309   
C106     C      0.781010000000     0.210590000000     0.233380000000     0.417249   
C107     C      0.990730000000     0.246130000000     0.290540000000     0.414231   
C108     C      0.733620000000     0.339240000000     0.236750000000     0.409803   
C109     C      0.731070000000     0.371200000000     0.365000000000     0.425529   
C110     C      0.920060000000     0.213850000000     0.410430000000     0.414345   
C111     C      0.900850000000     0.420770000000     0.371360000000     0.4195     
C112     C      0.785050000000     0.166500000000     0.359290000000     0.417027   
C113     C      0.788470000000     0.195110000000     0.139930000000     0.0773107  
C114     C      0.710580000000     0.108630000000     0.385890000000     0.0857705  
C115     C      0.717040000000     0.371920000000     0.148040000000     0.0773439  
C116     C      0.046530000000     0.218130000000     0.215670000000     0.0825184  
C117     C      0.965440000000     0.474400000000     0.420710000000     0.0772792  
C118     C      0.935640000000     0.203550000000     0.503840000000     0.078896   
C119     C      0.696320000000     0.455550000000     0.387180000000     0.0828057  
C120     C      0.961920000000     0.391890000000     0.170810000000     0.0798828  
C121     C      0.029390000000     0.435280000000     0.615320000000     0.421859   
C122     C      0.713360000000     0.163890000000     0.586490000000     0.417377   
C123     C      0.697870000000     0.459460000000     0.618070000000     0.408821   
C124     C      0.047910000000     0.136780000000     0.670200000000     0.417591   
C125     C      0.978810000000     0.136530000000     0.056330000000     0.414972   
C126     C      0.701360000000     0.488540000000     0.975550000000     0.418896   
C127     C      0.992170000000     0.501430000000     0.007610000000     0.406278   
C128     C      0.671330000000     0.124730000000     0.972170000000     0.409877   
C129     C      0.945760000000     0.366220000000     0.759780000000     0.416321   
C130     C      0.781010000000     0.210590000000     0.733380000000     0.417228   
C131     C      0.990730000000     0.246130000000     0.790540000000     0.414232   
C132     C      0.733620000000     0.339240000000     0.736750000000     0.409711   
C133     C      0.731070000000     0.371200000000     0.865000000000     0.425602   
C134     C      0.920060000000     0.213850000000     0.910420000000     0.41448    
C135     C      0.900850000000     0.420770000000     0.871360000000     0.419556   
C136     C      0.785050000000     0.166500000000     0.859290000000     0.417087   
C137     C      0.788470000000     0.195110000000     0.639930000000     0.0773178  
C138     C      0.710580000000     0.108630000000     0.885890000000     0.0857873  
C139     C      0.717040000000     0.371920000000     0.648040000000     0.077321   
C140     C      0.046530000000     0.218130000000     0.715670000000     0.0825093  
C141     C      0.965440000000     0.474400000000     0.920720000000     0.0771978  
C142     C      0.935640000000     0.203550000000     0.003840000000     0.0778104  
C143     C      0.696320000000     0.455550000000     0.887190000000     0.0829538  
C144     C      0.961920000000     0.391890000000     0.670810000000     0.0798908  
C145     C      0.029390000000     0.935280000000     0.115320000000     0.421857   
C146     C      0.713360000000     0.663890000000     0.086490000000     0.417165   
C147     C      0.697870000000     0.959460000000     0.118070000000     0.408752   
C148     C      0.047910000000     0.636780000000     0.170200000000     0.417627   
C149     C      0.978810000000     0.636530000000     0.556330000000     0.41508    
C150     C      0.701360000000     0.988540000000     0.475550000000     0.417281   
C151     C      0.992170000000     0.001430000000     0.507610000000     0.409387   
C152     C      0.671330000000     0.624720000000     0.472160000000     0.409938   
C153     C      0.945760000000     0.866220000000     0.259790000000     0.416309   
C154     C      0.781010000000     0.710590000000     0.233380000000     0.417263   
C155     C      0.990730000000     0.746130000000     0.290540000000     0.414229   
C156     C      0.733620000000     0.839240000000     0.236750000000     0.409798   
C157     C      0.731070000000     0.871200000000     0.365000000000     0.425522   
C158     C      0.920060000000     0.713840000000     0.410430000000     0.414312   
C159     C      0.900850000000     0.920760000000     0.371360000000     0.41948    
C160     C      0.785050000000     0.666500000000     0.359290000000     0.417039   
C161     C      0.788470000000     0.695110000000     0.139930000000     0.0773112  
C162     C      0.710580000000     0.608630000000     0.385890000000     0.0857584  
C163     C      0.717040000000     0.871920000000     0.148040000000     0.0773383  
C164     C      0.046530000000     0.718130000000     0.215670000000     0.0825105  
C165     C      0.965440000000     0.974400000000     0.420710000000     0.0772973  
C166     C      0.935640000000     0.703550000000     0.503840000000     0.0789061  
C167     C      0.696320000000     0.955550000000     0.387180000000     0.0828068  
C168     C      0.961920000000     0.891890000000     0.170810000000     0.079873   
C169     C      0.029390000000     0.935280000000     0.615320000000     0.421936   
C170     C      0.713360000000     0.663890000000     0.586490000000     0.417379   
C171     C      0.697870000000     0.959460000000     0.618070000000     0.408871   
C172     C      0.047910000000     0.636780000000     0.670200000000     0.417592   
C173     C      0.978810000000     0.636530000000     0.056330000000     0.414974   
C174     C      0.701360000000     0.988540000000     0.975550000000     0.41894    
C175     C      0.992170000000     0.001430000000     0.007610000000     0.406233   
C176     C      0.671330000000     0.624720000000     0.972170000000     0.40988    
C177     C      0.945760000000     0.866220000000     0.759780000000     0.416321   
C178     C      0.781010000000     0.710590000000     0.733380000000     0.417242   
C179     C      0.990730000000     0.746130000000     0.790540000000     0.41423    
C180     C      0.733620000000     0.839240000000     0.736750000000     0.409706   
C181     C      0.731070000000     0.871200000000     0.865000000000     0.425594   
C182     C      0.920060000000     0.713840000000     0.910420000000     0.414448   
C183     C      0.900850000000     0.920760000000     0.871360000000     0.419535   
C184     C      0.785050000000     0.666500000000     0.859290000000     0.417099   
C185     C      0.788470000000     0.695110000000     0.639930000000     0.0773183  
C186     C      0.710580000000     0.608630000000     0.885890000000     0.0857753  
C187     C      0.717040000000     0.871920000000     0.648040000000     0.0773154  
C188     C      0.046530000000     0.718130000000     0.715670000000     0.0825014  
C189     C      0.965440000000     0.974400000000     0.920720000000     0.0772163  
C190     C      0.935640000000     0.703550000000     0.003840000000     0.0778202  
C191     C      0.696320000000     0.955550000000     0.887190000000     0.0829548  
C192     C      0.961920000000     0.891890000000     0.670810000000     0.079881   
Co1      Co     0.531530000000     0.047570000000     0.104630000000     0.880735   
Co2      Co     0.191300000000     0.557330000000     0.563650000000     0.870765   
Co3      Co     0.606310000000     0.488390000000     0.046980000000     0.856932   
Co4      Co     0.600820000000     0.125770000000     0.565590000000     0.863645   
Co5      Co     0.332290000000     0.357790000000     0.300400000000     0.893264   
Co6      Co     0.371790000000     0.227710000000     0.306140000000     0.877817   
Co7      Co     0.421150000000     0.311330000000     0.356080000000     0.892914   
Co8      Co     0.265570000000     0.272340000000     0.325040000000     0.895398   
Co9      Co     0.531530000000     0.047570000000     0.604630000000     0.880852   
Co10     Co     0.191300000000     0.557330000000     0.063650000000     0.870004   
Co11     Co     0.606310000000     0.488390000000     0.546980000000     0.85887    
Co12     Co     0.600820000000     0.125770000000     0.065590000000     0.862648   
Co13     Co     0.332290000000     0.357790000000     0.800400000000     0.893338   
Co14     Co     0.371790000000     0.227710000000     0.806140000000     0.877771   
Co15     Co     0.421150000000     0.311330000000     0.856090000000     0.893063   
Co16     Co     0.265570000000     0.272340000000     0.825040000000     0.895497   
Co17     Co     0.531530000000     0.547570000000     0.104630000000     0.880794   
Co18     Co     0.191300000000     0.057330000000     0.563650000000     0.870765   
Co19     Co     0.606310000000     0.988380000000     0.046980000000     0.857047   
Co20     Co     0.600820000000     0.625770000000     0.565590000000     0.863635   
Co21     Co     0.332290000000     0.857790000000     0.300400000000     0.893287   
Co22     Co     0.371790000000     0.727710000000     0.306140000000     0.877806   
Co23     Co     0.421150000000     0.811330000000     0.356080000000     0.892904   
Co24     Co     0.265570000000     0.772330000000     0.325040000000     0.895415   
Co25     Co     0.531530000000     0.547570000000     0.604630000000     0.880911   
Co26     Co     0.191300000000     0.057330000000     0.063650000000     0.870004   
Co27     Co     0.606310000000     0.988380000000     0.546980000000     0.858985   
Co28     Co     0.600820000000     0.625770000000     0.065590000000     0.862638   
Co29     Co     0.332290000000     0.857790000000     0.800400000000     0.893361   
Co30     Co     0.371790000000     0.727710000000     0.806140000000     0.877759   
Co31     Co     0.421150000000     0.811330000000     0.856090000000     0.893053   
Co32     Co     0.265570000000     0.772330000000     0.825040000000     0.895514   
Co33     Co     0.031530000000     0.047570000000     0.104630000000     0.880745   
Co34     Co     0.691300000000     0.557330000000     0.563650000000     0.870764   
Co35     Co     0.106310000000     0.488390000000     0.046980000000     0.856932   
Co36     Co     0.100820000000     0.125770000000     0.565590000000     0.863649   
Co37     Co     0.832290000000     0.357790000000     0.300400000000     0.893246   
Co38     Co     0.871790000000     0.227710000000     0.306140000000     0.877812   
Co39     Co     0.921140000000     0.311330000000     0.356080000000     0.892774   
Co40     Co     0.765570000000     0.272340000000     0.325040000000     0.895457   
Co41     Co     0.031530000000     0.047570000000     0.604630000000     0.880861   
Co42     Co     0.691300000000     0.557330000000     0.063650000000     0.870002   
Co43     Co     0.106310000000     0.488390000000     0.546980000000     0.85887    
Co44     Co     0.100820000000     0.125770000000     0.065590000000     0.862652   
Co45     Co     0.832290000000     0.357790000000     0.800400000000     0.89332    
Co46     Co     0.871790000000     0.227710000000     0.806140000000     0.877765   
Co47     Co     0.921140000000     0.311330000000     0.856090000000     0.892924   
Co48     Co     0.765570000000     0.272340000000     0.825040000000     0.895556   
Co49     Co     0.031530000000     0.547570000000     0.104630000000     0.880804   
Co50     Co     0.691300000000     0.057330000000     0.563650000000     0.870763   
Co51     Co     0.106310000000     0.988380000000     0.046980000000     0.857047   
Co52     Co     0.100820000000     0.625770000000     0.565590000000     0.86364    
Co53     Co     0.832290000000     0.857790000000     0.300400000000     0.893269   
Co54     Co     0.871790000000     0.727710000000     0.306140000000     0.8778     
Co55     Co     0.921140000000     0.811330000000     0.356080000000     0.892765   
Co56     Co     0.765570000000     0.772330000000     0.325040000000     0.895473   
Co57     Co     0.031530000000     0.547570000000     0.604630000000     0.880921   
Co58     Co     0.691300000000     0.057330000000     0.063650000000     0.870002   
Co59     Co     0.106310000000     0.988380000000     0.546980000000     0.858985   
Co60     Co     0.100820000000     0.625770000000     0.065590000000     0.862643   
Co61     Co     0.832290000000     0.857790000000     0.800400000000     0.893343   
Co62     Co     0.871790000000     0.727710000000     0.806140000000     0.877754   
Co63     Co     0.921140000000     0.811330000000     0.856090000000     0.892914   
Co64     Co     0.765570000000     0.772330000000     0.825040000000     0.895572   
H1       H      0.235880000000     0.238690000000     0.090890000000     0.109548   
H2       H      0.217680000000     0.184440000000     0.189030000000     0.115464   
H3       H      0.311810000000     0.159700000000     0.134270000000     0.0433362  
H4       H      0.317930000000     0.227010000000     0.139340000000     0.0294406  
H5       H      0.159880000000     0.170500000000     0.409040000000     0.122619   
H6       H      0.297330000000     0.094040000000     0.385240000000     0.111264   
H7       H      0.207690000000     0.068470000000     0.396640000000     0.0255761  
H8       H      0.190260000000     0.113600000000     0.347970000000     0.0272366  
H9       H      0.158940000000     0.336470000000     0.198790000000     0.108715   
H10      H      0.253140000000     0.440700000000     0.175610000000     0.123178   
H11      H      0.257830000000     0.355920000000     0.137960000000     0.0301429  
H12      H      0.187430000000     0.360880000000     0.117580000000     0.0368177  
H13      H      0.517020000000     0.146320000000     0.243850000000     0.123271   
H14      H      0.575580000000     0.250220000000     0.286490000000     0.116904   
H15      H      0.588650000000     0.226720000000     0.201580000000     0.0313769  
H16      H      0.516890000000     0.237320000000     0.189750000000     0.0348498  
H17      H      0.412020000000     0.503920000000     0.480430000000     0.116      
H18      H      0.392370000000     0.497700000000     0.380380000000     0.109545   
H19      H      0.490850000000     0.502810000000     0.400430000000     0.0308553  
H20      H      0.490920000000     0.439920000000     0.424110000000     0.0508544  
H21      H      0.394990000000     0.150600000000     0.553770000000     0.113926   
H22      H      0.426520000000     0.145000000000     0.446590000000     0.116038   
H23      H      0.401840000000     0.230390000000     0.512230000000     0.0298418  
H24      H      0.475070000000     0.224480000000     0.506210000000     0.0467425  
H25      H      0.268110000000     0.484160000000     0.426130000000     0.113128   
H26      H      0.163660000000     0.384290000000     0.411960000000     0.122495   
H27      H      0.153440000000     0.469980000000     0.387130000000     0.0327939  
H28      H      0.216650000000     0.468310000000     0.351250000000     0.0342849  
H29      H      0.523670000000     0.378580000000     0.229860000000     0.115687   
H30      H      0.522400000000     0.358010000000     0.121570000000     0.11208    
H31      H      0.432020000000     0.362850000000     0.158120000000     0.0325641  
H32      H      0.439700000000     0.428330000000     0.171970000000     0.0477085  
H33      H      0.235880000000     0.238690000000     0.590890000000     0.109733   
H34      H      0.217680000000     0.184440000000     0.689030000000     0.115443   
H35      H      0.311810000000     0.159700000000     0.634270000000     0.0433855  
H36      H      0.317930000000     0.227010000000     0.639340000000     0.0295047  
H37      H      0.159880000000     0.170500000000     0.909040000000     0.122721   
H38      H      0.297330000000     0.094040000000     0.885240000000     0.111363   
H39      H      0.207690000000     0.068470000000     0.896630000000     0.0256148  
H40      H      0.190260000000     0.113600000000     0.847970000000     0.0272328  
H41      H      0.158940000000     0.336470000000     0.698790000000     0.108721   
H42      H      0.253140000000     0.440700000000     0.675610000000     0.1232     
H43      H      0.257830000000     0.355920000000     0.637960000000     0.0302576  
H44      H      0.187430000000     0.360880000000     0.617580000000     0.0369635  
H45      H      0.517020000000     0.146320000000     0.743850000000     0.123308   
H46      H      0.575580000000     0.250220000000     0.786490000000     0.116931   
H47      H      0.588650000000     0.226720000000     0.701580000000     0.0313885  
H48      H      0.516890000000     0.237320000000     0.689750000000     0.0348691  
H49      H      0.412020000000     0.503920000000     0.980440000000     0.116333   
H50      H      0.392370000000     0.497700000000     0.880380000000     0.109601   
H51      H      0.490850000000     0.502810000000     0.900430000000     0.0309804  
H52      H      0.490920000000     0.439920000000     0.924110000000     0.051046   
H53      H      0.394990000000     0.150600000000     0.053770000000     0.113699   
H54      H      0.426520000000     0.145000000000     0.946590000000     0.116324   
H55      H      0.401840000000     0.230390000000     0.012230000000     0.0296527  
H56      H      0.475070000000     0.224480000000     0.006210000000     0.0465487  
H57      H      0.268110000000     0.484160000000     0.926130000000     0.113391   
H58      H      0.163660000000     0.384290000000     0.911970000000     0.122653   
H59      H      0.153440000000     0.469980000000     0.887130000000     0.03277    
H60      H      0.216650000000     0.468310000000     0.851250000000     0.0342551  
H61      H      0.523670000000     0.378580000000     0.729870000000     0.115684   
H62      H      0.522400000000     0.358010000000     0.621570000000     0.112199   
H63      H      0.432020000000     0.362850000000     0.658120000000     0.0326314  
H64      H      0.439700000000     0.428330000000     0.671970000000     0.0477496  
H65      H      0.235880000000     0.738690000000     0.090890000000     0.109549   
H66      H      0.217680000000     0.684440000000     0.189030000000     0.115466   
H67      H      0.311810000000     0.659700000000     0.134270000000     0.0433374  
H68      H      0.317930000000     0.727010000000     0.139340000000     0.0294407  
H69      H      0.159880000000     0.670500000000     0.409040000000     0.122621   
H70      H      0.297330000000     0.594030000000     0.385240000000     0.111233   
H71      H      0.207690000000     0.568470000000     0.396640000000     0.0255825  
H72      H      0.190260000000     0.613590000000     0.347970000000     0.0272356  
H73      H      0.158940000000     0.836470000000     0.198790000000     0.108714   
H74      H      0.253140000000     0.940700000000     0.175610000000     0.123186   
H75      H      0.257830000000     0.855920000000     0.137960000000     0.0301453  
H76      H      0.187430000000     0.860890000000     0.117580000000     0.0368215  
H77      H      0.517020000000     0.646320000000     0.243850000000     0.123273   
H78      H      0.575580000000     0.750220000000     0.286490000000     0.116903   
H79      H      0.588650000000     0.726720000000     0.201580000000     0.0313788  
H80      H      0.516890000000     0.737310000000     0.189750000000     0.0348514  
H81      H      0.412020000000     0.003920000000     0.480430000000     0.115978   
H82      H      0.392370000000     0.997700000000     0.380380000000     0.109582   
H83      H      0.490850000000     0.002810000000     0.400430000000     0.0308359  
H84      H      0.490920000000     0.939920000000     0.424110000000     0.0508515  
H85      H      0.394990000000     0.650600000000     0.553770000000     0.113928   
H86      H      0.426520000000     0.645000000000     0.446590000000     0.11604    
H87      H      0.401840000000     0.730390000000     0.512230000000     0.0298399  
H88      H      0.475070000000     0.724480000000     0.506210000000     0.0467397  
H89      H      0.268110000000     0.984160000000     0.426130000000     0.113137   
H90      H      0.163660000000     0.884290000000     0.411960000000     0.122493   
H91      H      0.153440000000     0.969980000000     0.387130000000     0.0328001  
H92      H      0.216650000000     0.968310000000     0.351250000000     0.0342911  
H93      H      0.523670000000     0.878570000000     0.229860000000     0.115686   
H94      H      0.522400000000     0.858010000000     0.121570000000     0.112119   
H95      H      0.432020000000     0.862860000000     0.158120000000     0.0325632  
H96      H      0.439700000000     0.928320000000     0.171970000000     0.0477071  
H97      H      0.235880000000     0.738690000000     0.590890000000     0.109734   
H98      H      0.217680000000     0.684440000000     0.689030000000     0.115445   
H99      H      0.311810000000     0.659700000000     0.634270000000     0.0433867  
H100     H      0.317930000000     0.727010000000     0.639340000000     0.0295048  
H101     H      0.159880000000     0.670500000000     0.909040000000     0.122723   
H102     H      0.297330000000     0.594030000000     0.885240000000     0.111331   
H103     H      0.207690000000     0.568470000000     0.896630000000     0.0256213  
H104     H      0.190260000000     0.613590000000     0.847970000000     0.0272319  
H105     H      0.158940000000     0.836470000000     0.698790000000     0.10872    
H106     H      0.253140000000     0.940700000000     0.675610000000     0.123208   
H107     H      0.257830000000     0.855920000000     0.637960000000     0.03026    
H108     H      0.187430000000     0.860890000000     0.617580000000     0.0369674  
H109     H      0.517020000000     0.646320000000     0.743850000000     0.123309   
H110     H      0.575580000000     0.750220000000     0.786490000000     0.11693    
H111     H      0.588650000000     0.726720000000     0.701580000000     0.0313905  
H112     H      0.516890000000     0.737310000000     0.689750000000     0.0348708  
H113     H      0.412020000000     0.003920000000     0.980440000000     0.116311   
H114     H      0.392370000000     0.997700000000     0.880380000000     0.109638   
H115     H      0.490850000000     0.002810000000     0.900430000000     0.0309607  
H116     H      0.490920000000     0.939920000000     0.924110000000     0.0510431  
H117     H      0.394990000000     0.650600000000     0.053770000000     0.113701   
H118     H      0.426520000000     0.645000000000     0.946590000000     0.116326   
H119     H      0.401840000000     0.730390000000     0.012230000000     0.0296509  
H120     H      0.475070000000     0.724480000000     0.006210000000     0.0465459  
H121     H      0.268110000000     0.984160000000     0.926130000000     0.113399   
H122     H      0.163660000000     0.884290000000     0.911970000000     0.12265    
H123     H      0.153440000000     0.969980000000     0.887130000000     0.0327763  
H124     H      0.216650000000     0.968310000000     0.851250000000     0.0342613  
H125     H      0.523670000000     0.878570000000     0.729870000000     0.115683   
H126     H      0.522400000000     0.858010000000     0.621570000000     0.112237   
H127     H      0.432020000000     0.862860000000     0.658120000000     0.0326305  
H128     H      0.439700000000     0.928320000000     0.671970000000     0.0477483  
H129     H      0.735880000000     0.238690000000     0.090890000000     0.109547   
H130     H      0.717690000000     0.184440000000     0.189030000000     0.115506   
H131     H      0.811810000000     0.159700000000     0.134270000000     0.0433335  
H132     H      0.817930000000     0.227010000000     0.139340000000     0.0294387  
H133     H      0.659880000000     0.170500000000     0.409040000000     0.122619   
H134     H      0.797330000000     0.094040000000     0.385240000000     0.111261   
H135     H      0.707690000000     0.068470000000     0.396640000000     0.0255766  
H136     H      0.690260000000     0.113600000000     0.347970000000     0.0272384  
H137     H      0.658940000000     0.336470000000     0.198790000000     0.108714   
H138     H      0.753140000000     0.440700000000     0.175610000000     0.123178   
H139     H      0.757830000000     0.355920000000     0.137960000000     0.0301423  
H140     H      0.687430000000     0.360880000000     0.117580000000     0.0368169  
H141     H      0.017010000000     0.146320000000     0.243850000000     0.123252   
H142     H      0.075580000000     0.250220000000     0.286490000000     0.116903   
H143     H      0.088650000000     0.226720000000     0.201580000000     0.0313836  
H144     H      0.016890000000     0.237320000000     0.189750000000     0.0348528  
H145     H      0.912020000000     0.503920000000     0.480430000000     0.116      
H146     H      0.892370000000     0.497700000000     0.380380000000     0.109577   
H147     H      0.990850000000     0.502810000000     0.400430000000     0.0308561  
H148     H      0.990930000000     0.439920000000     0.424110000000     0.0508629  
H149     H      0.894990000000     0.150600000000     0.553770000000     0.113894   
H150     H      0.926520000000     0.145000000000     0.446590000000     0.116037   
H151     H      0.901840000000     0.230390000000     0.512230000000     0.029848   
H152     H      0.975070000000     0.224480000000     0.506210000000     0.0467307  
H153     H      0.768110000000     0.484160000000     0.426130000000     0.113129   
H154     H      0.663660000000     0.384290000000     0.411960000000     0.122521   
H155     H      0.653440000000     0.469980000000     0.387130000000     0.0327966  
H156     H      0.716650000000     0.468310000000     0.351250000000     0.0342848  
H157     H      0.023670000000     0.378580000000     0.229860000000     0.115692   
H158     H      0.022400000000     0.358010000000     0.121570000000     0.112082   
H159     H      0.932020000000     0.362850000000     0.158120000000     0.032561   
H160     H      0.939690000000     0.428330000000     0.171970000000     0.0477052  
H161     H      0.735880000000     0.238690000000     0.590890000000     0.109733   
H162     H      0.717690000000     0.184440000000     0.689030000000     0.115485   
H163     H      0.811810000000     0.159700000000     0.634270000000     0.0433828  
H164     H      0.817930000000     0.227010000000     0.639340000000     0.0295027  
H165     H      0.659880000000     0.170500000000     0.909040000000     0.122721   
H166     H      0.797330000000     0.094040000000     0.885240000000     0.11136    
H167     H      0.707690000000     0.068470000000     0.896630000000     0.0256153  
H168     H      0.690260000000     0.113600000000     0.847970000000     0.0272346  
H169     H      0.658940000000     0.336470000000     0.698790000000     0.10872    
H170     H      0.753140000000     0.440700000000     0.675610000000     0.1232     
H171     H      0.757830000000     0.355920000000     0.637960000000     0.030257   
H172     H      0.687430000000     0.360880000000     0.617580000000     0.0369628  
H173     H      0.017010000000     0.146320000000     0.743850000000     0.123288   
H174     H      0.075580000000     0.250220000000     0.786490000000     0.11693    
H175     H      0.088650000000     0.226720000000     0.701580000000     0.0313953  
H176     H      0.016890000000     0.237320000000     0.689750000000     0.0348722  
H177     H      0.912020000000     0.503920000000     0.980440000000     0.116333   
H178     H      0.892370000000     0.497700000000     0.880380000000     0.109633   
H179     H      0.990850000000     0.502810000000     0.900430000000     0.0309811  
H180     H      0.990930000000     0.439920000000     0.924110000000     0.0510546  
H181     H      0.894990000000     0.150600000000     0.053770000000     0.113667   
H182     H      0.926520000000     0.145000000000     0.946590000000     0.116323   
H183     H      0.901840000000     0.230390000000     0.012230000000     0.0296588  
H184     H      0.975070000000     0.224480000000     0.006210000000     0.046537   
H185     H      0.768110000000     0.484160000000     0.926130000000     0.113391   
H186     H      0.663660000000     0.384290000000     0.911970000000     0.122678   
H187     H      0.653440000000     0.469980000000     0.887130000000     0.0327727  
H188     H      0.716650000000     0.468310000000     0.851250000000     0.0342551  
H189     H      0.023670000000     0.378580000000     0.729870000000     0.115689   
H190     H      0.022400000000     0.358010000000     0.621570000000     0.112201   
H191     H      0.932020000000     0.362850000000     0.658120000000     0.0326283  
H192     H      0.939690000000     0.428330000000     0.671970000000     0.0477463  
H193     H      0.735880000000     0.738690000000     0.090890000000     0.109548   
H194     H      0.717690000000     0.684440000000     0.189030000000     0.115508   
H195     H      0.811810000000     0.659700000000     0.134270000000     0.0433347  
H196     H      0.817930000000     0.727010000000     0.139340000000     0.0294388  
H197     H      0.659880000000     0.670500000000     0.409040000000     0.122621   
H198     H      0.797330000000     0.594030000000     0.385240000000     0.11123    
H199     H      0.707690000000     0.568470000000     0.396640000000     0.025583   
H200     H      0.690260000000     0.613590000000     0.347970000000     0.0272374  
H201     H      0.658940000000     0.836470000000     0.198790000000     0.108713   
H202     H      0.753140000000     0.940700000000     0.175610000000     0.123185   
H203     H      0.757830000000     0.855920000000     0.137960000000     0.0301447  
H204     H      0.687430000000     0.860890000000     0.117580000000     0.0368208  
H205     H      0.017010000000     0.646320000000     0.243850000000     0.123253   
H206     H      0.075580000000     0.750220000000     0.286490000000     0.116902   
H207     H      0.088650000000     0.726720000000     0.201580000000     0.0313856  
H208     H      0.016890000000     0.737310000000     0.189750000000     0.0348545  
H209     H      0.912020000000     0.003920000000     0.480430000000     0.115978   
H210     H      0.892370000000     0.997700000000     0.380380000000     0.109613   
H211     H      0.990850000000     0.002810000000     0.400430000000     0.0308367  
H212     H      0.990930000000     0.939920000000     0.424110000000     0.0508601  
H213     H      0.894990000000     0.650600000000     0.553770000000     0.113896   
H214     H      0.926520000000     0.645000000000     0.446590000000     0.116039   
H215     H      0.901840000000     0.730390000000     0.512230000000     0.0298461  
H216     H      0.975070000000     0.724480000000     0.506210000000     0.0467279  
H217     H      0.768110000000     0.984160000000     0.426130000000     0.113138   
H218     H      0.663660000000     0.884290000000     0.411960000000     0.122518   
H219     H      0.653440000000     0.969980000000     0.387130000000     0.0328028  
H220     H      0.716650000000     0.968310000000     0.351250000000     0.034291   
H221     H      0.023670000000     0.878570000000     0.229860000000     0.115691   
H222     H      0.022400000000     0.858010000000     0.121570000000     0.112121   
H223     H      0.932020000000     0.862860000000     0.158120000000     0.0325601  
H224     H      0.939690000000     0.928320000000     0.171970000000     0.0477038  
H225     H      0.735880000000     0.738690000000     0.590890000000     0.109733   
H226     H      0.717690000000     0.684440000000     0.689030000000     0.115487   
H227     H      0.811810000000     0.659700000000     0.634270000000     0.043384   
H228     H      0.817930000000     0.727010000000     0.639340000000     0.0295029  
H229     H      0.659880000000     0.670500000000     0.909040000000     0.122723   
H230     H      0.797330000000     0.594030000000     0.885240000000     0.111328   
H231     H      0.707690000000     0.568470000000     0.896630000000     0.0256218  
H232     H      0.690260000000     0.613590000000     0.847970000000     0.0272337  
H233     H      0.658940000000     0.836470000000     0.698790000000     0.108719   
H234     H      0.753140000000     0.940700000000     0.675610000000     0.123207   
H235     H      0.757830000000     0.855920000000     0.637960000000     0.0302594  
H236     H      0.687430000000     0.860890000000     0.617580000000     0.0369666  
H237     H      0.017010000000     0.646320000000     0.743850000000     0.12329    
H238     H      0.075580000000     0.750220000000     0.786490000000     0.116929   
H239     H      0.088650000000     0.726720000000     0.701580000000     0.0313973  
H240     H      0.016890000000     0.737310000000     0.689750000000     0.0348738  
H241     H      0.912020000000     0.003920000000     0.980440000000     0.116311   
H242     H      0.892370000000     0.997700000000     0.880380000000     0.10967    
H243     H      0.990850000000     0.002810000000     0.900430000000     0.0309614  
H244     H      0.990930000000     0.939920000000     0.924110000000     0.0510516  
H245     H      0.894990000000     0.650600000000     0.053770000000     0.113669   
H246     H      0.926520000000     0.645000000000     0.946590000000     0.116325   
H247     H      0.901840000000     0.730390000000     0.012230000000     0.029657   
H248     H      0.975070000000     0.724480000000     0.006210000000     0.0465343  
H249     H      0.768110000000     0.984160000000     0.926130000000     0.1134     
H250     H      0.663660000000     0.884290000000     0.911970000000     0.122676   
H251     H      0.653440000000     0.969980000000     0.887130000000     0.032779   
H252     H      0.716650000000     0.968310000000     0.851250000000     0.0342612  
H253     H      0.023670000000     0.878570000000     0.729870000000     0.115688   
H254     H      0.022400000000     0.858010000000     0.621570000000     0.112239   
H255     H      0.932020000000     0.862860000000     0.658120000000     0.0326274  
H256     H      0.939690000000     0.928320000000     0.671970000000     0.047745   
N1       N      0.259670000000     0.192940000000     0.189170000000    -0.223166   
N2       N      0.247470000000     0.201890000000     0.099600000000    -0.224128   
N3       N      0.268390000000     0.122710000000     0.380820000000    -0.217932   
N4       N      0.182210000000     0.140120000000     0.423520000000    -0.217556   
N5       N      0.222840000000     0.426760000000     0.150990000000    -0.217366   
N6       N      0.198980000000     0.350600000000     0.197330000000    -0.219102   
N7       N      0.540190000000     0.236940000000     0.268220000000    -0.22304    
N8       N      0.536760000000     0.163990000000     0.213100000000    -0.220548   
N9       N      0.415080000000     0.466070000000     0.391080000000    -0.222558   
N10      N      0.452520000000     0.493830000000     0.471820000000    -0.221377   
N11      N      0.428640000000     0.183880000000     0.451750000000    -0.220027   
N12      N      0.433630000000     0.162260000000     0.540930000000    -0.222616   
N13      N      0.194830000000     0.400880000000     0.390170000000    -0.222322   
N14      N      0.226640000000     0.475250000000     0.431240000000    -0.221853   
N15      N      0.507740000000     0.392570000000     0.134770000000    -0.224558   
N16      N      0.481470000000     0.379500000000     0.222370000000    -0.223204   
N17      N      0.259670000000     0.192940000000     0.689170000000    -0.223165   
N18      N      0.247470000000     0.201890000000     0.599600000000    -0.224094   
N19      N      0.268390000000     0.122710000000     0.880820000000    -0.217895   
N20      N      0.182210000000     0.140120000000     0.923530000000    -0.217432   
N21      N      0.222840000000     0.426760000000     0.650990000000    -0.217355   
N22      N      0.198980000000     0.350600000000     0.697330000000    -0.219085   
N23      N      0.540190000000     0.236940000000     0.768220000000    -0.223034   
N24      N      0.536760000000     0.163990000000     0.713110000000    -0.220542   
N25      N      0.415080000000     0.466070000000     0.891080000000    -0.22251    
N26      N      0.452520000000     0.493830000000     0.971820000000    -0.220279   
N27      N      0.428640000000     0.183880000000     0.951750000000    -0.219299   
N28      N      0.433630000000     0.162260000000     0.040930000000    -0.222616   
N29      N      0.194830000000     0.400880000000     0.890170000000    -0.222306   
N30      N      0.226640000000     0.475250000000     0.931240000000    -0.222086   
N31      N      0.507740000000     0.392570000000     0.634770000000    -0.224539   
N32      N      0.481470000000     0.379500000000     0.722370000000    -0.223244   
N33      N      0.259670000000     0.692940000000     0.189170000000    -0.223168   
N34      N      0.247470000000     0.701890000000     0.099600000000    -0.224127   
N35      N      0.268390000000     0.622710000000     0.380820000000    -0.217897   
N36      N      0.182210000000     0.640120000000     0.423520000000    -0.217538   
N37      N      0.222840000000     0.926760000000     0.150990000000    -0.217373   
N38      N      0.198980000000     0.850600000000     0.197330000000    -0.2191     
N39      N      0.540190000000     0.736940000000     0.268220000000    -0.223039   
N40      N      0.536760000000     0.663990000000     0.213100000000    -0.220547   
N41      N      0.415080000000     0.966080000000     0.391080000000    -0.222505   
N42      N      0.452520000000     0.993830000000     0.471820000000    -0.221347   
N43      N      0.428640000000     0.683880000000     0.451750000000    -0.220053   
N44      N      0.433630000000     0.662260000000     0.540930000000    -0.222618   
N45      N      0.194830000000     0.900880000000     0.390170000000    -0.222321   
N46      N      0.226640000000     0.975250000000     0.431240000000    -0.221858   
N47      N      0.507740000000     0.892560000000     0.134770000000    -0.224568   
N48      N      0.481470000000     0.879500000000     0.222370000000    -0.223198   
N49      N      0.259670000000     0.692940000000     0.689170000000    -0.223168   
N50      N      0.247470000000     0.701890000000     0.599600000000    -0.224093   
N51      N      0.268390000000     0.622710000000     0.880820000000    -0.21786    
N52      N      0.182210000000     0.640120000000     0.923530000000    -0.217414   
N53      N      0.222840000000     0.926760000000     0.650990000000    -0.217363   
N54      N      0.198980000000     0.850600000000     0.697330000000    -0.219083   
N55      N      0.540190000000     0.736940000000     0.768220000000    -0.223033   
N56      N      0.536760000000     0.663990000000     0.713110000000    -0.220542   
N57      N      0.415080000000     0.966080000000     0.891080000000    -0.222457   
N58      N      0.452520000000     0.993830000000     0.971820000000    -0.220249   
N59      N      0.428640000000     0.683880000000     0.951750000000    -0.219324   
N60      N      0.433630000000     0.662260000000     0.040930000000    -0.222618   
N61      N      0.194830000000     0.900880000000     0.890170000000    -0.222305   
N62      N      0.226640000000     0.975250000000     0.931240000000    -0.222092   
N63      N      0.507740000000     0.892560000000     0.634770000000    -0.224549   
N64      N      0.481470000000     0.879500000000     0.722370000000    -0.223238   
N65      N      0.759670000000     0.192940000000     0.189170000000    -0.223211   
N66      N      0.747470000000     0.201890000000     0.099600000000    -0.22413    
N67      N      0.768390000000     0.122710000000     0.380820000000    -0.217911   
N68      N      0.682210000000     0.140120000000     0.423520000000    -0.217554   
N69      N      0.722840000000     0.426760000000     0.150990000000    -0.217366   
N70      N      0.698980000000     0.350600000000     0.197330000000    -0.219103   
N71      N      0.040190000000     0.236940000000     0.268220000000    -0.223012   
N72      N      0.036760000000     0.163990000000     0.213100000000    -0.220514   
N73      N      0.915070000000     0.466070000000     0.391080000000    -0.222577   
N74      N      0.952520000000     0.493830000000     0.471820000000    -0.221371   
N75      N      0.928640000000     0.183880000000     0.451750000000    -0.220026   
N76      N      0.933640000000     0.162260000000     0.540930000000    -0.222653   
N77      N      0.694820000000     0.400880000000     0.390170000000    -0.222318   
N78      N      0.726640000000     0.475250000000     0.431240000000    -0.221854   
N79      N      0.007740000000     0.392570000000     0.134770000000    -0.224555   
N80      N      0.981470000000     0.379500000000     0.222370000000    -0.223206   
N81      N      0.759670000000     0.192940000000     0.689170000000    -0.223211   
N82      N      0.747470000000     0.201890000000     0.599600000000    -0.224096   
N83      N      0.768390000000     0.122710000000     0.880820000000    -0.217874   
N84      N      0.682210000000     0.140120000000     0.923530000000    -0.217431   
N85      N      0.722840000000     0.426760000000     0.650990000000    -0.217355   
N86      N      0.698980000000     0.350600000000     0.697330000000    -0.219086   
N87      N      0.040190000000     0.236940000000     0.768220000000    -0.223006   
N88      N      0.036760000000     0.163990000000     0.713110000000    -0.220509   
N89      N      0.915070000000     0.466070000000     0.891080000000    -0.222529   
N90      N      0.952520000000     0.493830000000     0.971820000000    -0.220273   
N91      N      0.928640000000     0.183880000000     0.951750000000    -0.219297   
N92      N      0.933640000000     0.162260000000     0.040930000000    -0.222653   
N93      N      0.694820000000     0.400880000000     0.890170000000    -0.222302   
N94      N      0.726640000000     0.475250000000     0.931240000000    -0.222088   
N95      N      0.007740000000     0.392570000000     0.634770000000    -0.224536   
N96      N      0.981470000000     0.379500000000     0.722370000000    -0.223247   
N97      N      0.759670000000     0.692940000000     0.189170000000    -0.223213   
N98      N      0.747470000000     0.701890000000     0.099600000000    -0.22413    
N99      N      0.768390000000     0.622710000000     0.380820000000    -0.217876   
N100     N      0.682210000000     0.640120000000     0.423520000000    -0.217536   
N101     N      0.722840000000     0.926760000000     0.150990000000    -0.217374   
N102     N      0.698980000000     0.850600000000     0.197330000000    -0.2191     
N103     N      0.040190000000     0.736940000000     0.268220000000    -0.22301    
N104     N      0.036760000000     0.663990000000     0.213100000000    -0.220513   
N105     N      0.915070000000     0.966080000000     0.391080000000    -0.222524   
N106     N      0.952520000000     0.993830000000     0.471820000000    -0.221341   
N107     N      0.928640000000     0.683880000000     0.451750000000    -0.220051   
N108     N      0.933640000000     0.662260000000     0.540930000000    -0.222654   
N109     N      0.694820000000     0.900880000000     0.390170000000    -0.222317   
N110     N      0.726640000000     0.975250000000     0.431240000000    -0.221859   
N111     N      0.007740000000     0.892560000000     0.134770000000    -0.224565   
N112     N      0.981470000000     0.879500000000     0.222370000000    -0.2232     
N113     N      0.759670000000     0.692940000000     0.689170000000    -0.223213   
N114     N      0.747470000000     0.701890000000     0.599600000000    -0.224096   
N115     N      0.768390000000     0.622710000000     0.880820000000    -0.217839   
N116     N      0.682210000000     0.640120000000     0.923530000000    -0.217413   
N117     N      0.722840000000     0.926760000000     0.650990000000    -0.217363   
N118     N      0.698980000000     0.850600000000     0.697330000000    -0.219083   
N119     N      0.040190000000     0.736940000000     0.768220000000    -0.223004   
N120     N      0.036760000000     0.663990000000     0.713110000000    -0.220508   
N121     N      0.915070000000     0.966080000000     0.891080000000    -0.222476   
N122     N      0.952520000000     0.993830000000     0.971820000000    -0.220243   
N123     N      0.928640000000     0.683880000000     0.951750000000    -0.219322   
N124     N      0.933640000000     0.662260000000     0.040930000000    -0.222654   
N125     N      0.694820000000     0.900880000000     0.890170000000    -0.222301   
N126     N      0.726640000000     0.975250000000     0.931240000000    -0.222093   
N127     N      0.007740000000     0.892560000000     0.634770000000    -0.224546   
N128     N      0.981470000000     0.879500000000     0.722370000000    -0.223241   
O1       O      0.512910000000     0.477980000000     0.131940000000    -0.375156   
O2       O      0.229390000000     0.118580000000     0.092270000000    -0.38169    
O3       O      0.158260000000     0.444530000000     0.089510000000    -0.361177   
O4       O      0.572890000000     0.157500000000     0.132350000000    -0.373799   
O5       O      0.214930000000     0.504860000000     0.116200000000    -0.374064   
O6       O      0.531550000000     0.091300000000     0.168160000000    -0.377757   
O7       O      0.164980000000     0.174450000000     0.070830000000    -0.363263   
O8       O      0.565220000000     0.431450000000     0.079880000000    -0.365278   
O9       O      0.472500000000     0.098110000000     0.585170000000    -0.358701   
O10      O      0.227520000000     0.515740000000     0.507750000000    -0.362789   
O11      O      0.541830000000     0.489070000000     0.497550000000    -0.383974   
O12      O      0.129960000000     0.143730000000     0.495180000000    -0.371358   
O13      O      0.201790000000     0.091540000000     0.493580000000    -0.363055   
O14      O      0.478810000000     0.521070000000     0.550580000000    -0.366149   
O15      O      0.526380000000     0.151020000000     0.541650000000    -0.375223   
O16      O      0.150880000000     0.477200000000     0.482380000000    -0.382702   
O17      O      0.612270000000     0.553380000000     0.087020000000    -0.618559   
O18      O      0.394290000000     0.367900000000     0.250380000000    -0.395429   
O19      O      0.332960000000     0.216130000000     0.238100000000    -0.394551   
O20      O      0.489220000000     0.274640000000     0.330110000000    -0.362404   
O21      O      0.217550000000     0.308210000000     0.271360000000    -0.36579    
O22      O      0.446700000000     0.228150000000     0.270860000000    -0.382626   
O23      O      0.281270000000     0.359310000000     0.238550000000    -0.381826   
O24      O      0.247760000000     0.222740000000     0.269110000000    -0.375574   
O25      O      0.464490000000     0.351040000000     0.302950000000    -0.367333   
O26      O      0.269250000000     0.391370000000     0.338180000000    -0.374647   
O27      O      0.406950000000     0.193300000000     0.367730000000    -0.356709   
O28      O      0.427070000000     0.381480000000     0.385490000000    -0.37902    
O29      O      0.252050000000     0.203920000000     0.357580000000    -0.3697     
O30      O      0.333390000000     0.168530000000     0.340020000000    -0.357216   
O31      O      0.362690000000     0.419000000000     0.337570000000    -0.36996    
O32      O      0.224940000000     0.323700000000     0.367590000000    -0.385617   
O33      O      0.423750000000     0.261540000000     0.415080000000    -0.383192   
O34      O      0.344460000000     0.292300000000     0.335320000000    -0.64454    
O35      O      0.512910000000     0.477980000000     0.631940000000    -0.375171   
O36      O      0.229390000000     0.118580000000     0.592260000000    -0.381646   
O37      O      0.158260000000     0.444530000000     0.589510000000    -0.361193   
O38      O      0.572890000000     0.157500000000     0.632350000000    -0.373905   
O39      O      0.214930000000     0.504860000000     0.616200000000    -0.374157   
O40      O      0.531550000000     0.091300000000     0.668160000000    -0.377798   
O41      O      0.164980000000     0.174450000000     0.570830000000    -0.362985   
O42      O      0.565220000000     0.431450000000     0.579880000000    -0.36519    
O43      O      0.472500000000     0.098110000000     0.085170000000    -0.358791   
O44      O      0.227520000000     0.515740000000     0.007750000000    -0.364425   
O45      O      0.541830000000     0.489070000000     0.997550000000    -0.381646   
O46      O      0.129960000000     0.143730000000     0.995180000000    -0.370313   
O47      O      0.201790000000     0.091540000000     0.993580000000    -0.362035   
O48      O      0.478810000000     0.521070000000     0.050580000000    -0.365672   
O49      O      0.526380000000     0.151020000000     0.041660000000    -0.375535   
O50      O      0.150880000000     0.477200000000     0.982370000000    -0.382214   
O51      O      0.612270000000     0.553380000000     0.587020000000    -0.618841   
O52      O      0.394290000000     0.367900000000     0.750390000000    -0.395492   
O53      O      0.332960000000     0.216130000000     0.738090000000    -0.39451    
O54      O      0.489220000000     0.274640000000     0.830110000000    -0.362344   
O55      O      0.217550000000     0.308210000000     0.771370000000    -0.36576    
O56      O      0.446700000000     0.228150000000     0.770860000000    -0.38262    
O57      O      0.281270000000     0.359310000000     0.738550000000    -0.381804   
O58      O      0.247760000000     0.222740000000     0.769110000000    -0.375596   
O59      O      0.464490000000     0.351040000000     0.802950000000    -0.367244   
O60      O      0.269250000000     0.391370000000     0.838180000000    -0.374642   
O61      O      0.406950000000     0.193300000000     0.867730000000    -0.356738   
O62      O      0.427070000000     0.381480000000     0.885490000000    -0.378907   
O63      O      0.252050000000     0.203920000000     0.857580000000    -0.36963    
O64      O      0.333390000000     0.168530000000     0.840020000000    -0.35719    
O65      O      0.362690000000     0.419000000000     0.837570000000    -0.369945   
O66      O      0.224940000000     0.323700000000     0.867590000000    -0.385494   
O67      O      0.423750000000     0.261540000000     0.915080000000    -0.38287    
O68      O      0.344460000000     0.292300000000     0.835320000000    -0.64451    
O69      O      0.512910000000     0.977970000000     0.131940000000    -0.375175   
O70      O      0.229390000000     0.618580000000     0.092270000000    -0.381687   
O71      O      0.158260000000     0.944530000000     0.089510000000    -0.361228   
O72      O      0.572890000000     0.657500000000     0.132350000000    -0.373799   
O73      O      0.214930000000     0.004860000000     0.116200000000    -0.374097   
O74      O      0.531550000000     0.591300000000     0.168160000000    -0.377756   
O75      O      0.164980000000     0.674450000000     0.070830000000    -0.36326    
O76      O      0.565220000000     0.931450000000     0.079880000000    -0.365354   
O77      O      0.472500000000     0.598110000000     0.585170000000    -0.358705   
O78      O      0.227520000000     0.015740000000     0.507750000000    -0.362823   
O79      O      0.541830000000     0.989070000000     0.497550000000    -0.383955   
O80      O      0.129960000000     0.643730000000     0.495180000000    -0.371331   
O81      O      0.201790000000     0.591540000000     0.493580000000    -0.363101   
O82      O      0.478810000000     0.021070000000     0.550580000000    -0.366143   
O83      O      0.526380000000     0.651020000000     0.541650000000    -0.375225   
O84      O      0.150880000000     0.977200000000     0.482380000000    -0.38273    
O85      O      0.612270000000     0.053380000000     0.087020000000    -0.618535   
O86      O      0.394290000000     0.867900000000     0.250380000000    -0.395429   
O87      O      0.332960000000     0.716130000000     0.238100000000    -0.394555   
O88      O      0.489220000000     0.774640000000     0.330110000000    -0.362402   
O89      O      0.217550000000     0.808210000000     0.271360000000    -0.365767   
O90      O      0.446700000000     0.728150000000     0.270860000000    -0.382622   
O91      O      0.281270000000     0.859310000000     0.238550000000    -0.381822   
O92      O      0.247760000000     0.722740000000     0.269110000000    -0.375615   
O93      O      0.464490000000     0.851040000000     0.302950000000    -0.367332   
O94      O      0.269250000000     0.891370000000     0.338180000000    -0.374641   
O95      O      0.406950000000     0.693300000000     0.367730000000    -0.356727   
O96      O      0.427070000000     0.881480000000     0.385490000000    -0.379076   
O97      O      0.252050000000     0.703920000000     0.357580000000    -0.36975    
O98      O      0.333390000000     0.668530000000     0.340020000000    -0.357216   
O99      O      0.362690000000     0.919000000000     0.337570000000    -0.369958   
O100     O      0.224940000000     0.823700000000     0.367590000000    -0.385583   
O101     O      0.423750000000     0.761540000000     0.415080000000    -0.383112   
O102     O      0.344460000000     0.792300000000     0.335320000000    -0.64453    
O103     O      0.512910000000     0.977970000000     0.631940000000    -0.37519    
O104     O      0.229390000000     0.618580000000     0.592260000000    -0.381642   
O105     O      0.158260000000     0.944530000000     0.589510000000    -0.361245   
O106     O      0.572890000000     0.657500000000     0.632350000000    -0.373905   
O107     O      0.214930000000     0.004860000000     0.616200000000    -0.37419    
O108     O      0.531550000000     0.591300000000     0.668160000000    -0.377797   
O109     O      0.164980000000     0.674450000000     0.570830000000    -0.362983   
O110     O      0.565220000000     0.931450000000     0.579880000000    -0.365266   
O111     O      0.472500000000     0.598110000000     0.085170000000    -0.358795   
O112     O      0.227520000000     0.015740000000     0.007750000000    -0.364458   
O113     O      0.541830000000     0.989070000000     0.997550000000    -0.381629   
O114     O      0.129960000000     0.643730000000     0.995180000000    -0.370285   
O115     O      0.201790000000     0.591540000000     0.993580000000    -0.36208    
O116     O      0.478810000000     0.021070000000     0.050580000000    -0.365666   
O117     O      0.526380000000     0.651020000000     0.041660000000    -0.375538   
O118     O      0.150880000000     0.977200000000     0.982370000000    -0.382241   
O119     O      0.612270000000     0.053380000000     0.587020000000    -0.618816   
O120     O      0.394290000000     0.867900000000     0.750390000000    -0.395493   
O121     O      0.332960000000     0.716130000000     0.738090000000    -0.394515   
O122     O      0.489220000000     0.774640000000     0.830110000000    -0.362343   
O123     O      0.217550000000     0.808210000000     0.771370000000    -0.365737   
O124     O      0.446700000000     0.728150000000     0.770860000000    -0.382617   
O125     O      0.281270000000     0.859310000000     0.738550000000    -0.3818     
O126     O      0.247760000000     0.722740000000     0.769110000000    -0.375637   
O127     O      0.464490000000     0.851040000000     0.802950000000    -0.367243   
O128     O      0.269250000000     0.891370000000     0.838180000000    -0.374636   
O129     O      0.406950000000     0.693300000000     0.867730000000    -0.356755   
O130     O      0.427070000000     0.881480000000     0.885490000000    -0.378963   
O131     O      0.252050000000     0.703920000000     0.857580000000    -0.36968    
O132     O      0.333390000000     0.668530000000     0.840020000000    -0.35719    
O133     O      0.362690000000     0.919000000000     0.837570000000    -0.369943   
O134     O      0.224940000000     0.823700000000     0.867590000000    -0.38546    
O135     O      0.423750000000     0.761540000000     0.915080000000    -0.38279    
O136     O      0.344460000000     0.792300000000     0.835320000000    -0.6445     
O137     O      0.012910000000     0.477980000000     0.131940000000    -0.375154   
O138     O      0.729390000000     0.118580000000     0.092270000000    -0.381692   
O139     O      0.658260000000     0.444530000000     0.089510000000    -0.361177   
O140     O      0.072900000000     0.157500000000     0.132350000000    -0.373766   
O141     O      0.714930000000     0.504860000000     0.116200000000    -0.374065   
O142     O      0.031550000000     0.091300000000     0.168160000000    -0.377737   
O143     O      0.664980000000     0.174450000000     0.070830000000    -0.363266   
O144     O      0.065220000000     0.431450000000     0.079880000000    -0.365277   
O145     O      0.972500000000     0.098110000000     0.585170000000    -0.358718   
O146     O      0.727520000000     0.515740000000     0.507750000000    -0.362789   
O147     O      0.041830000000     0.489070000000     0.497550000000    -0.383964   
O148     O      0.629960000000     0.143730000000     0.495180000000    -0.371357   
O149     O      0.701790000000     0.091540000000     0.493580000000    -0.363054   
O150     O      0.978810000000     0.521070000000     0.550580000000    -0.366152   
O151     O      0.026380000000     0.151020000000     0.541650000000    -0.375161   
O152     O      0.650880000000     0.477200000000     0.482380000000    -0.382703   
O153     O      0.112270000000     0.553380000000     0.087020000000    -0.618558   
O154     O      0.894290000000     0.367900000000     0.250380000000    -0.395426   
O155     O      0.832960000000     0.216130000000     0.238100000000    -0.394551   
O156     O      0.989220000000     0.274640000000     0.330110000000    -0.362312   
O157     O      0.717550000000     0.308210000000     0.271360000000    -0.365794   
O158     O      0.946690000000     0.228150000000     0.270860000000    -0.382581   
O159     O      0.781270000000     0.359310000000     0.238550000000    -0.381824   
O160     O      0.747760000000     0.222740000000     0.269110000000    -0.375588   
O161     O      0.964490000000     0.351040000000     0.302950000000    -0.367292   
O162     O      0.769250000000     0.391370000000     0.338180000000    -0.374636   
O163     O      0.906950000000     0.193300000000     0.367730000000    -0.356709   
O164     O      0.927080000000     0.381480000000     0.385490000000    -0.378976   
O165     O      0.752040000000     0.203920000000     0.357580000000    -0.369632   
O166     O      0.833390000000     0.168530000000     0.340020000000    -0.357194   
O167     O      0.862690000000     0.419000000000     0.337570000000    -0.369898   
O168     O      0.724940000000     0.323700000000     0.367590000000    -0.385611   
O169     O      0.923750000000     0.261540000000     0.415080000000    -0.383176   
O170     O      0.844450000000     0.292300000000     0.335320000000    -0.644569   
O171     O      0.012910000000     0.477980000000     0.631940000000    -0.375169   
O172     O      0.729390000000     0.118580000000     0.592260000000    -0.381647   
O173     O      0.658260000000     0.444530000000     0.589510000000    -0.361194   
O174     O      0.072900000000     0.157500000000     0.632350000000    -0.373873   
O175     O      0.714930000000     0.504860000000     0.616200000000    -0.374158   
O176     O      0.031550000000     0.091300000000     0.668160000000    -0.377778   
O177     O      0.664980000000     0.174450000000     0.570830000000    -0.362989   
O178     O      0.065220000000     0.431450000000     0.579880000000    -0.365189   
O179     O      0.972500000000     0.098110000000     0.085170000000    -0.358808   
O180     O      0.727520000000     0.515740000000     0.007750000000    -0.364425   
O181     O      0.041830000000     0.489070000000     0.997550000000    -0.381637   
O182     O      0.629960000000     0.143730000000     0.995180000000    -0.370311   
O183     O      0.701790000000     0.091540000000     0.993580000000    -0.362034   
O184     O      0.978810000000     0.521070000000     0.050580000000    -0.365674   
O185     O      0.026380000000     0.151020000000     0.041660000000    -0.375474   
O186     O      0.650880000000     0.477200000000     0.982370000000    -0.382215   
O187     O      0.112270000000     0.553380000000     0.587020000000    -0.61884    
O188     O      0.894290000000     0.367900000000     0.750390000000    -0.395489   
O189     O      0.832960000000     0.216130000000     0.738090000000    -0.39451    
O190     O      0.989220000000     0.274640000000     0.830110000000    -0.362253   
O191     O      0.717550000000     0.308210000000     0.771370000000    -0.365765   
O192     O      0.946690000000     0.228150000000     0.770860000000    -0.382575   
O193     O      0.781270000000     0.359310000000     0.738550000000    -0.381803   
O194     O      0.747760000000     0.222740000000     0.769110000000    -0.37561    
O195     O      0.964490000000     0.351040000000     0.802950000000    -0.367203   
O196     O      0.769250000000     0.391370000000     0.838180000000    -0.374631   
O197     O      0.906950000000     0.193300000000     0.867730000000    -0.356737   
O198     O      0.927080000000     0.381480000000     0.885490000000    -0.378862   
O199     O      0.752040000000     0.203920000000     0.857580000000    -0.369561   
O200     O      0.833390000000     0.168530000000     0.840020000000    -0.357168   
O201     O      0.862690000000     0.419000000000     0.837570000000    -0.369883   
O202     O      0.724940000000     0.323700000000     0.867590000000    -0.385488   
O203     O      0.923750000000     0.261540000000     0.915080000000    -0.382854   
O204     O      0.844450000000     0.292300000000     0.835320000000    -0.644539   
O205     O      0.012910000000     0.977970000000     0.131940000000    -0.375173   
O206     O      0.729390000000     0.618580000000     0.092270000000    -0.381689   
O207     O      0.658260000000     0.944530000000     0.089510000000    -0.361229   
O208     O      0.072900000000     0.657500000000     0.132350000000    -0.373766   
O209     O      0.714930000000     0.004860000000     0.116200000000    -0.374098   
O210     O      0.031550000000     0.591300000000     0.168160000000    -0.377737   
O211     O      0.664980000000     0.674450000000     0.070830000000    -0.363264   
O212     O      0.065220000000     0.931450000000     0.079880000000    -0.365353   
O213     O      0.972500000000     0.598110000000     0.585170000000    -0.358722   
O214     O      0.727520000000     0.015740000000     0.507750000000    -0.362822   
O215     O      0.041830000000     0.989070000000     0.497550000000    -0.383946   
O216     O      0.629960000000     0.643730000000     0.495180000000    -0.371329   
O217     O      0.701790000000     0.591540000000     0.493580000000    -0.3631     
O218     O      0.978810000000     0.021070000000     0.550580000000    -0.366145   
O219     O      0.026380000000     0.651020000000     0.541650000000    -0.375164   
O220     O      0.650880000000     0.977200000000     0.482380000000    -0.382731   
O221     O      0.112270000000     0.053380000000     0.087020000000    -0.618534   
O222     O      0.894290000000     0.867900000000     0.250380000000    -0.395426   
O223     O      0.832960000000     0.716130000000     0.238100000000    -0.394555   
O224     O      0.989220000000     0.774640000000     0.330110000000    -0.362311   
O225     O      0.717550000000     0.808210000000     0.271360000000    -0.365772   
O226     O      0.946690000000     0.728150000000     0.270860000000    -0.382577   
O227     O      0.781270000000     0.859310000000     0.238550000000    -0.38182    
O228     O      0.747760000000     0.722740000000     0.269110000000    -0.375629   
O229     O      0.964490000000     0.851040000000     0.302950000000    -0.36729    
O230     O      0.769250000000     0.891370000000     0.338180000000    -0.37463    
O231     O      0.906950000000     0.693300000000     0.367730000000    -0.356727   
O232     O      0.927080000000     0.881480000000     0.385490000000    -0.379032   
O233     O      0.752040000000     0.703920000000     0.357580000000    -0.369682   
O234     O      0.833390000000     0.668530000000     0.340020000000    -0.357195   
O235     O      0.862690000000     0.919000000000     0.337570000000    -0.369897   
O236     O      0.724940000000     0.823700000000     0.367590000000    -0.385577   
O237     O      0.923750000000     0.761540000000     0.415080000000    -0.383096   
O238     O      0.844450000000     0.792300000000     0.335320000000    -0.644558   
O239     O      0.012910000000     0.977970000000     0.631940000000    -0.375187   
O240     O      0.729390000000     0.618580000000     0.592260000000    -0.381644   
O241     O      0.658260000000     0.944530000000     0.589510000000    -0.361245   
O242     O      0.072900000000     0.657500000000     0.632350000000    -0.373873   
O243     O      0.714930000000     0.004860000000     0.616200000000    -0.374191   
O244     O      0.031550000000     0.591300000000     0.668160000000    -0.377777   
O245     O      0.664980000000     0.674450000000     0.570830000000    -0.362986   
O246     O      0.065220000000     0.931450000000     0.579880000000    -0.365265   
O247     O      0.972500000000     0.598110000000     0.085170000000    -0.358812   
O248     O      0.727520000000     0.015740000000     0.007750000000    -0.364457   
O249     O      0.041830000000     0.989070000000     0.997550000000    -0.38162    
O250     O      0.629960000000     0.643730000000     0.995180000000    -0.370284   
O251     O      0.701790000000     0.591540000000     0.993580000000    -0.362079   
O252     O      0.978810000000     0.021070000000     0.050580000000    -0.365668   
O253     O      0.026380000000     0.651020000000     0.041660000000    -0.375477   
O254     O      0.650880000000     0.977200000000     0.982370000000    -0.382242   
O255     O      0.112270000000     0.053380000000     0.587020000000    -0.618816   
O256     O      0.894290000000     0.867900000000     0.750390000000    -0.39549    
O257     O      0.832960000000     0.716130000000     0.738090000000    -0.394515   
O258     O      0.989220000000     0.774640000000     0.830110000000    -0.362251   
O259     O      0.717550000000     0.808210000000     0.771370000000    -0.365742   
O260     O      0.946690000000     0.728150000000     0.770860000000    -0.382572   
O261     O      0.781270000000     0.859310000000     0.738550000000    -0.381799   
O262     O      0.747760000000     0.722740000000     0.769110000000    -0.37565    
O263     O      0.964490000000     0.851040000000     0.802950000000    -0.367201   
O264     O      0.769250000000     0.891370000000     0.838180000000    -0.374625   
O265     O      0.906950000000     0.693300000000     0.867730000000    -0.356755   
O266     O      0.927080000000     0.881480000000     0.885490000000    -0.378918   
O267     O      0.752040000000     0.703920000000     0.857580000000    -0.369611   
O268     O      0.833390000000     0.668530000000     0.840020000000    -0.357168   
O269     O      0.862690000000     0.919000000000     0.837570000000    -0.369881   
O270     O      0.724940000000     0.823700000000     0.867590000000    -0.385453   
O271     O      0.923750000000     0.761540000000     0.915080000000    -0.382774   
O272     O      0.844450000000     0.792300000000     0.835320000000    -0.644528   


