data_structure

_audit_creation_method RASPA-1.0
_audit_creation_date 2023-5-9
_audit_author_name 'Poobodin Mano'

_cell_length_a    33.2535
_cell_length_b    36.7198
_cell_length_c    37.0188
_cell_angle_alpha 90
_cell_angle_beta  90
_cell_angle_gamma 90
_cell_volume      45202.2

_symmetry_cell_setting          triclinic
_symmetry_space_group_name_Hall 'P 1'
_symmetry_space_group_name_H-M  'P 1'
_symmetry_Int_Tables_number     1

_symmetry_equiv_pos_as_xyz 'x,y,z'

loop_
_atom_site_label
_atom_site_type_symbol
_atom_site_fract_x
_atom_site_fract_y
_atom_site_fract_z
_atom_site_charge
C1       C      0.175480000000     0.078880000000     0.230620000000     0.404811   
C2       C      0.596560000000     0.454080000000     0.346390000000     0.403002   
C3       C      0.202660000000     0.056170000000     0.331300000000     0.405001   
C4       C      0.575260000000     0.472680000000     0.231260000000     0.406925   
C5       C      0.502680000000     0.540980000000     0.242310000000     0.41032    
C6       C      0.127270000000     0.105090000000     0.377430000000     0.416587   
C7       C      0.095900000000     0.132350000000     0.235820000000     0.405441   
C8       C      0.540330000000     0.515270000000     0.380220000000     0.409267   
C9       C      0.119240000000     0.232460000000     0.121800000000     0.400848   
C10      C      0.520150000000     0.357960000000     0.547450000000     0.400189   
C11      C      0.106020000000     0.362670000000     0.120050000000     0.401825   
C12      C      0.525360000000     0.249120000000     0.545980000000     0.403752   
C13      C      0.601220000000     0.240330000000     0.471500000000     0.416323   
C14      C      0.197040000000     0.364100000000     0.060930000000     0.408306   
C15      C      0.202160000000     0.242570000000     0.055370000000     0.409182   
C16      C      0.601770000000     0.379770000000     0.486940000000     0.406235   
C17      C      0.439760000000     0.048070000000     0.101440000000     0.41304    
C18      C      0.258280000000     0.505100000000     0.545810000000     0.412926   
C19      C      0.273690000000     0.080890000000     0.090140000000     0.415774   
C20      C      0.424430000000     0.476510000000     0.542280000000     0.412968   
C21      C      0.398500000000     0.509630000000     0.457040000000     0.412379   
C22      C      0.322340000000     0.146120000000     0.042850000000     0.413546   
C23      C      0.432130000000     0.128240000000     0.054330000000     0.416775   
C24      C      0.291710000000     0.520160000000     0.456430000000     0.414925   
C25      C      0.470680000000     0.392800000000     0.584140000000    -0.0107076  
C26      C      0.435920000000     0.418730000000     0.575040000000    -0.00650754 
C27      C      0.448740000000     0.185400000000     0.086270000000    -0.00473795 
C28      C      0.483070000000     0.209670000000     0.584420000000    -0.011874   
C29      C      0.226450000000     0.455220000000     0.580920000000    -0.00231787 
C30      C      0.230070000000     0.422900000000     0.555150000000    -0.00856455 
C31      C      0.288250000000     0.200580000000     0.503900000000    -0.007541   
C32      C      0.247610000000     0.200930000000     0.022200000000    -0.00798569 
C33      C      0.481100000000     0.489910000000     0.412480000000    -0.00306574 
C34      C      0.444970000000     0.013920000000     0.405510000000    -0.00932944 
C35      C      0.258030000000     0.037140000000     0.399860000000    -0.00912354 
C36      C      0.260490000000     0.527030000000     0.360170000000    -0.00727813 
C37      C      0.245460000000     0.086230000000     0.151690000000    -0.0101975  
C38      C      0.207480000000     0.072670000000     0.170800000000    -0.00967184 
C39      C      0.461780000000     0.559600000000     0.189160000000    -0.00944386 
C40      C      0.453660000000     0.027300000000     0.164380000000    -0.00370192 
C41      C      0.617440000000     0.182560000000     0.442110000000    -0.0100133  
C42      C      0.120580000000     0.165960000000     0.404530000000    -0.00891542 
C43      C      0.620080000000     0.412920000000     0.395610000000    -0.0111614  
C44      C      0.588830000000     0.404100000000     0.424940000000    -0.00889825 
C45      C      0.089950000000     0.444810000000     0.171670000000    -0.00940595 
C46      C      0.572110000000     0.416030000000     0.148000000000    -0.0111758  
C47      C      0.070130000000     0.164840000000     0.180990000000    -0.00878741 
C48      C      0.101320000000     0.173490000000     0.151510000000    -0.009922   
C49      C      0.183610000000     0.072870000000     0.728180000000     0.409356   
C50      C      0.589310000000     0.447680000000     0.836570000000     0.408151   
C51      C      0.209650000000     0.057270000000     0.827780000000     0.412436   
C52      C      0.557480000000     0.468310000000     0.734090000000     0.414093   
C53      C      0.512520000000     0.553130000000     0.739410000000     0.412212   
C54      C      0.126680000000     0.091890000000     0.873940000000     0.412919   
C55      C      0.099010000000     0.120730000000     0.728950000000     0.406556   
C56      C      0.554380000000     0.513740000000     0.881310000000     0.410508   
C57      C      0.129030000000     0.225830000000     0.625650000000     0.401208   
C58      C      0.522020000000     0.354690000000     0.034720000000     0.399399   
C59      C      0.104740000000     0.345270000000     0.643230000000     0.403262   
C60      C      0.524590000000     0.246490000000     0.045550000000     0.39857    
C61      C      0.592270000000     0.227420000000     0.966950000000     0.413794   
C62      C      0.194640000000     0.368100000000     0.578140000000     0.409093   
C63      C      0.203750000000     0.244440000000     0.555270000000     0.409541   
C64      C      0.602690000000     0.363050000000     0.961070000000     0.406509   
C65      C      0.433690000000     0.054520000000     0.602250000000     0.412316   
C66      C      0.266210000000     0.501020000000     0.036040000000     0.412342   
C67      C      0.266210000000     0.091740000000     0.590230000000     0.415722   
C68      C      0.433170000000     0.475920000000     0.037870000000     0.414043   
C69      C      0.410780000000     0.513470000000     0.953890000000     0.413183   
C70      C      0.317740000000     0.148650000000     0.537730000000     0.413584   
C71      C      0.425290000000     0.129700000000     0.551120000000     0.415277   
C72      C      0.302540000000     0.522730000000     0.951180000000     0.415154   
C73      C      0.477380000000     0.389720000000     0.075740000000    -0.0108038  
C74      C      0.443600000000     0.417240000000     0.068980000000    -0.00575878 
C75      C      0.444230000000     0.187780000000     0.580230000000    -0.00630643 
C76      C      0.485300000000     0.210400000000     0.089860000000    -0.0131017  
C77      C      0.233360000000     0.448750000000     0.066880000000    -0.00210939 
C78      C      0.237570000000     0.417100000000     0.040340000000    -0.00919332 
C79      C      0.292380000000     0.199840000000     0.012360000000    -0.00770443 
C80      C      0.244300000000     0.203950000000     0.516040000000    -0.00647622 
C81      C      0.495730000000     0.492730000000     0.916900000000    -0.00146458 
C82      C      0.462880000000     0.018650000000     0.906240000000    -0.00875997 
C83      C      0.268020000000     0.042180000000     0.895380000000    -0.00913797 
C84      C      0.271710000000     0.534540000000     0.855500000000    -0.00705422 
C85      C      0.236840000000     0.104590000000     0.650710000000    -0.00741144 
C86      C      0.222850000000     0.070520000000     0.670940000000    -0.00967786 
C87      C      0.474160000000     0.575100000000     0.685890000000    -0.00863597 
C88      C      0.452540000000     0.044770000000     0.667020000000    -0.00629587 
C89      C      0.606420000000     0.167210000000     0.940340000000    -0.0108592  
C90      C      0.109930000000     0.150330000000     0.902500000000    -0.00890541 
C91      C      0.618950000000     0.391300000000     0.863570000000    -0.0106249  
C92      C      0.603830000000     0.366050000000     0.894130000000    -0.00781065 
C93      C      0.073740000000     0.417900000000     0.691430000000    -0.00861373 
C94      C      0.558590000000     0.379530000000     0.683510000000    -0.00795811 
C95      C      0.079760000000     0.152540000000     0.671670000000    -0.006652   
C96      C      0.116250000000     0.162640000000     0.648280000000    -0.00875909 
C97      C      0.175120000000     0.579430000000     0.230570000000     0.404688   
C98      C      0.596770000000     0.953670000000     0.346740000000     0.402735   
C99      C      0.202120000000     0.557590000000     0.331440000000     0.405456   
C100     C      0.575670000000     0.972500000000     0.231320000000     0.407982   
C101     C      0.502970000000     0.040700000000     0.242670000000     0.410395   
C102     C      0.126140000000     0.605590000000     0.377210000000     0.416593   
C103     C      0.095180000000     0.632540000000     0.235300000000     0.40577    
C104     C      0.540530000000     0.014920000000     0.380350000000     0.409129   
C105     C      0.119170000000     0.732410000000     0.121370000000     0.401151   
C106     C      0.520000000000     0.858130000000     0.548270000000     0.400125   
C107     C      0.106100000000     0.862730000000     0.119880000000     0.401933   
C108     C      0.525320000000     0.749130000000     0.546500000000     0.403704   
C109     C      0.600630000000     0.740720000000     0.471670000000     0.416447   
C110     C      0.197030000000     0.864090000000     0.060630000000     0.408255   
C111     C      0.202080000000     0.742620000000     0.055070000000     0.409214   
C112     C      0.601540000000     0.879960000000     0.487440000000     0.40629    
C113     C      0.439650000000     0.548040000000     0.101080000000     0.413199   
C114     C      0.258210000000     0.005000000000     0.546240000000     0.411165   
C115     C      0.273550000000     0.581160000000     0.090210000000     0.415684   
C116     C      0.424420000000     0.976560000000     0.543220000000     0.413924   
C117     C      0.398730000000     0.008950000000     0.457830000000     0.41082    
C118     C      0.322210000000     0.646170000000     0.042700000000     0.413452   
C119     C      0.431960000000     0.628240000000     0.054080000000     0.416647   
C120     C      0.291940000000     0.019690000000     0.456830000000     0.413759   
C121     C      0.470710000000     0.892920000000     0.585200000000    -0.0107645  
C122     C      0.435950000000     0.918910000000     0.576220000000    -0.00637494 
C123     C      0.448740000000     0.685360000000     0.086030000000    -0.00470389 
C124     C      0.483320000000     0.709380000000     0.584910000000    -0.0120381  
C125     C      0.226310000000     0.955180000000     0.581380000000    -0.00241631 
C126     C      0.230160000000     0.922820000000     0.555680000000    -0.00846364 
C127     C      0.288420000000     0.700870000000     0.504420000000    -0.00761939 
C128     C      0.247550000000     0.700970000000     0.021930000000    -0.00797512 
C129     C      0.481350000000     0.989310000000     0.412480000000    -0.00163236 
C130     C      0.444920000000     0.514560000000     0.404890000000    -0.00761602 
C131     C      0.256520000000     0.537570000000     0.400050000000    -0.00942734 
C132     C      0.260670000000     0.025360000000     0.360240000000    -0.00845859 
C133     C      0.245340000000     0.586760000000     0.151790000000    -0.0103672  
C134     C      0.207440000000     0.573030000000     0.170920000000    -0.00950674 
C135     C      0.461920000000     0.059490000000     0.189670000000    -0.00949071 
C136     C      0.453770000000     0.527270000000     0.163980000000    -0.00367727 
C137     C      0.616660000000     0.683050000000     0.442020000000    -0.00992467 
C138     C      0.118970000000     0.666370000000     0.404390000000    -0.00885162 
C139     C      0.620000000000     0.912520000000     0.396080000000    -0.01115    
C140     C      0.588570000000     0.904330000000     0.425440000000    -0.00876697 
C141     C      0.090250000000     0.944820000000     0.171620000000    -0.00931069 
C142     C      0.572320000000     0.916110000000     0.147920000000    -0.0111569  
C143     C      0.069790000000     0.664710000000     0.180140000000    -0.00861396 
C144     C      0.101320000000     0.673350000000     0.150960000000    -0.00996785 
C145     C      0.182920000000     0.572720000000     0.728170000000     0.409417   
C146     C      0.589740000000     0.947930000000     0.836620000000     0.408221   
C147     C      0.208650000000     0.557700000000     0.828200000000     0.412452   
C148     C      0.557900000000     0.968730000000     0.734320000000     0.414037   
C149     C      0.513190000000     0.053700000000     0.739720000000     0.412212   
C150     C      0.125400000000     0.591840000000     0.873780000000     0.412641   
C151     C      0.098300000000     0.620400000000     0.728620000000     0.406497   
C152     C      0.555300000000     0.014030000000     0.881510000000     0.410472   
C153     C      0.128890000000     0.725690000000     0.625710000000     0.401221   
C154     C      0.521920000000     0.854760000000     0.034820000000     0.39931    
C155     C      0.104760000000     0.845410000000     0.643660000000     0.403311   
C156     C      0.524520000000     0.746540000000     0.045280000000     0.39861    
C157     C      0.591770000000     0.727640000000     0.966620000000     0.413666   
C158     C      0.194590000000     0.868100000000     0.578640000000     0.409135   
C159     C      0.203720000000     0.744540000000     0.555660000000     0.409489   
C160     C      0.602680000000     0.863210000000     0.960910000000     0.406655   
C161     C      0.433790000000     0.554020000000     0.601800000000     0.412386   
C162     C      0.266470000000     0.000960000000     0.035820000000     0.410434   
C163     C      0.266400000000     0.591510000000     0.590220000000     0.415708   
C164     C      0.433420000000     0.975890000000     0.038360000000     0.415036   
C165     C      0.411590000000     0.013140000000     0.954300000000     0.412188   
C166     C      0.317840000000     0.648710000000     0.537970000000     0.413589   
C167     C      0.425510000000     0.629580000000     0.551190000000     0.415338   
C168     C      0.303180000000     0.022750000000     0.951120000000     0.414216   
C169     C      0.477380000000     0.889560000000     0.076120000000    -0.0107578  
C170     C      0.443680000000     0.917200000000     0.069500000000    -0.00571879 
C171     C      0.444550000000     0.687410000000     0.580710000000    -0.0061676  
C172     C      0.485350000000     0.710310000000     0.089560000000    -0.0130476  
C173     C      0.233500000000     0.948680000000     0.066540000000    -0.00217481 
C174     C      0.237640000000     0.917030000000     0.040000000000    -0.00920883 
C175     C      0.292340000000     0.699890000000     0.012130000000    -0.00776681 
C176     C      0.244440000000     0.704150000000     0.516460000000    -0.00658895 
C177     C      0.496860000000     0.992760000000     0.917200000000    -1.41306e-05
C178     C      0.461980000000     0.518790000000     0.905800000000    -0.00765675 
C179     C      0.266270000000     0.541830000000     0.895920000000    -0.00903117 
C180     C      0.272570000000     0.033900000000     0.855080000000    -0.00716795 
C181     C      0.237140000000     0.604170000000     0.650810000000    -0.00765111 
C182     C      0.222280000000     0.570370000000     0.671000000000    -0.00970774 
C183     C      0.474760000000     0.075800000000     0.686280000000    -0.00877479 
C184     C      0.452590000000     0.543780000000     0.666500000000    -0.00622505 
C185     C      0.605570000000     0.667390000000     0.940010000000    -0.0108504  
C186     C      0.108450000000     0.650300000000     0.902220000000    -0.00887291 
C187     C      0.619200000000     0.891380000000     0.863430000000    -0.0106648  
C188     C      0.604050000000     0.866140000000     0.893970000000    -0.00768647 
C189     C      0.074040000000     0.918150000000     0.691770000000    -0.00875674 
C190     C      0.558740000000     0.879800000000     0.684000000000    -0.00798823 
C191     C      0.079580000000     0.652140000000     0.671160000000    -0.00667504 
C192     C      0.116300000000     0.662380000000     0.648110000000    -0.0087465  
C193     C      0.675510000000     0.078940000000     0.230450000000     0.404506   
C194     C      0.096400000000     0.453770000000     0.346110000000     0.403227   
C195     C      0.702930000000     0.055950000000     0.331220000000     0.404897   
C196     C      0.074700000000     0.472410000000     0.231030000000     0.406903   
C197     C      0.002660000000     0.540850000000     0.242040000000     0.410398   
C198     C      0.628140000000     0.105390000000     0.377440000000     0.416491   
C199     C      0.596110000000     0.132700000000     0.236090000000     0.405572   
C200     C      0.040260000000     0.514860000000     0.380130000000     0.409265   
C201     C      0.619220000000     0.232720000000     0.121990000000     0.400874   
C202     C      0.020060000000     0.357940000000     0.547460000000     0.399847   
C203     C      0.606250000000     0.362760000000     0.120200000000     0.40191    
C204     C      0.025400000000     0.249020000000     0.546030000000     0.40365    
C205     C      0.100790000000     0.240160000000     0.471540000000     0.416152   
C206     C      0.697290000000     0.364060000000     0.060830000000     0.408299   
C207     C      0.702110000000     0.242560000000     0.055450000000     0.409168   
C208     C      0.101780000000     0.379630000000     0.486730000000     0.406231   
C209     C      0.939760000000     0.047830000000     0.101090000000     0.413043   
C210     C      0.758270000000     0.504940000000     0.545840000000     0.412958   
C211     C      0.773670000000     0.080510000000     0.089840000000     0.415608   
C212     C      0.924410000000     0.476410000000     0.542370000000     0.41298    
C213     C      0.898490000000     0.509430000000     0.457090000000     0.412461   
C214     C      0.822230000000     0.145920000000     0.042680000000     0.413432   
C215     C      0.932140000000     0.127980000000     0.054030000000     0.416619   
C216     C      0.791740000000     0.519940000000     0.456430000000     0.414835   
C217     C      0.970620000000     0.392700000000     0.584250000000    -0.010782   
C218     C      0.935870000000     0.418660000000     0.575180000000    -0.00648702 
C219     C      0.948810000000     0.185090000000     0.086030000000    -0.0047389  
C220     C      0.983250000000     0.209430000000     0.584460000000    -0.0117981  
C221     C      0.726470000000     0.455030000000     0.580930000000    -0.0023363  
C222     C      0.730180000000     0.422720000000     0.555150000000    -0.00844795 
C223     C      0.788030000000     0.200350000000     0.503660000000    -0.00756261 
C224     C      0.747420000000     0.200800000000     0.022260000000    -0.00798079 
C225     C      0.981030000000     0.489520000000     0.412400000000    -0.00304538 
C226     C      0.944970000000     0.013630000000     0.405550000000    -0.00946332 
C227     C      0.758250000000     0.036860000000     0.399750000000    -0.00913421 
C228     C      0.760630000000     0.526620000000     0.360110000000    -0.00732467 
C229     C      0.745490000000     0.085560000000     0.151420000000    -0.0101325  
C230     C      0.707200000000     0.072700000000     0.170510000000    -0.00965566 
C231     C      0.961930000000     0.559480000000     0.188790000000    -0.00933968 
C232     C      0.953710000000     0.027150000000     0.164060000000    -0.00370176 
C233     C      0.116650000000     0.182280000000     0.442170000000    -0.0099959  
C234     C      0.621830000000     0.166320000000     0.404480000000    -0.00890131 
C235     C      0.119990000000     0.412570000000     0.395270000000    -0.0110762  
C236     C      0.088800000000     0.403820000000     0.424680000000    -0.00893899 
C237     C      0.591890000000     0.444690000000     0.172340000000    -0.00933522 
C238     C      0.070830000000     0.415440000000     0.147780000000    -0.011027   
C239     C      0.570040000000     0.165360000000     0.181480000000    -0.00876858 
C240     C      0.601020000000     0.173870000000     0.151790000000    -0.00993968 
C241     C      0.683180000000     0.073340000000     0.728210000000     0.409602   
C242     C      0.089670000000     0.447290000000     0.836340000000     0.408096   
C243     C      0.709420000000     0.057530000000     0.827600000000     0.412329   
C244     C      0.057360000000     0.468300000000     0.733510000000     0.414181   
C245     C      0.012860000000     0.553010000000     0.739320000000     0.412145   
C246     C      0.626630000000     0.092240000000     0.874060000000     0.412944   
C247     C      0.598560000000     0.120970000000     0.729010000000     0.406776   
C248     C      0.054540000000     0.513290000000     0.881060000000     0.410575   
C249     C      0.628950000000     0.225730000000     0.625670000000     0.401174   
C250     C      0.021870000000     0.354410000000     0.034380000000     0.399222   
C251     C      0.605240000000     0.345220000000     0.643420000000     0.403625   
C252     C      0.024650000000     0.246220000000     0.045340000000     0.398483   
C253     C      0.092430000000     0.227200000000     0.966770000000     0.413581   
C254     C      0.694770000000     0.367930000000     0.578150000000     0.409142   
C255     C      0.703680000000     0.244220000000     0.555200000000     0.409815   
C256     C      0.102770000000     0.362790000000     0.960890000000     0.406634   
C257     C      0.933630000000     0.054510000000     0.602260000000     0.412076   
C258     C      0.766180000000     0.500880000000     0.035610000000     0.412311   
C259     C      0.766140000000     0.091700000000     0.590140000000     0.415628   
C260     C      0.933040000000     0.475670000000     0.037460000000     0.414191   
C261     C      0.910820000000     0.513310000000     0.953500000000     0.413284   
C262     C      0.817650000000     0.148500000000     0.537520000000     0.413715   
C263     C      0.925300000000     0.129570000000     0.551110000000     0.415428   
C264     C      0.802540000000     0.522760000000     0.950740000000     0.415125   
C265     C      0.977070000000     0.389380000000     0.075310000000    -0.0106996  
C266     C      0.943320000000     0.416910000000     0.068450000000    -0.00578898 
C267     C      0.944400000000     0.187550000000     0.580310000000    -0.00623915 
C268     C      0.985380000000     0.210080000000     0.089620000000    -0.0129389  
C269     C      0.733370000000     0.448640000000     0.066530000000    -0.00204044 
C270     C      0.737870000000     0.416950000000     0.040080000000    -0.0091551  
C271     C      0.792170000000     0.199690000000     0.012330000000    -0.00784836 
C272     C      0.744110000000     0.203690000000     0.515900000000    -0.00648974 
C273     C      0.995750000000     0.492360000000     0.916520000000    -0.00140552 
C274     C      0.963000000000     0.018390000000     0.905920000000    -0.00886936 
C275     C      0.768050000000     0.042320000000     0.894990000000    -0.00908278 
C276     C      0.771540000000     0.534730000000     0.855100000000    -0.00700737 
C277     C      0.736750000000     0.104740000000     0.650580000000    -0.00758854 
C278     C      0.722340000000     0.070890000000     0.670930000000    -0.00953904 
C279     C      0.974420000000     0.575110000000     0.685910000000    -0.00846836 
C280     C      0.952490000000     0.044920000000     0.667060000000    -0.00634583 
C281     C      0.106630000000     0.166990000000     0.940150000000    -0.0108234  
C282     C      0.609970000000     0.150660000000     0.902670000000    -0.00885194 
C283     C      0.119290000000     0.390930000000     0.863390000000    -0.0107018  
C284     C      0.104080000000     0.365720000000     0.893950000000    -0.00773648 
C285     C      0.574840000000     0.417650000000     0.692750000000    -0.0085237  
C286     C      0.057770000000     0.379500000000     0.683040000000    -0.00732429 
C287     C      0.579390000000     0.152640000000     0.671640000000    -0.00659261 
C288     C      0.615980000000     0.162580000000     0.648320000000    -0.00868797 
C289     C      0.675140000000     0.579500000000     0.230410000000     0.40449    
C290     C      0.096620000000     0.953350000000     0.346450000000     0.402858   
C291     C      0.702400000000     0.557390000000     0.331370000000     0.40547    
C292     C      0.075120000000     0.972230000000     0.231090000000     0.407809   
C293     C      0.002950000000     0.040570000000     0.242390000000     0.41022    
C294     C      0.626970000000     0.605890000000     0.377220000000     0.41631    
C295     C      0.595390000000     0.632900000000     0.235570000000     0.405725   
C296     C      0.040470000000     0.014480000000     0.380250000000     0.40919    
C297     C      0.619130000000     0.732660000000     0.121560000000     0.401037   
C298     C      0.019920000000     0.858100000000     0.548270000000     0.399716   
C299     C      0.606310000000     0.862820000000     0.120030000000     0.401988   
C300     C      0.025370000000     0.749030000000     0.546540000000     0.403408   
C301     C      0.100210000000     0.740550000000     0.471690000000     0.416234   
C302     C      0.697280000000     0.864040000000     0.060540000000     0.408292   
C303     C      0.702030000000     0.742610000000     0.055160000000     0.40917    
C304     C      0.101560000000     0.879820000000     0.487200000000     0.405973   
C305     C      0.939650000000     0.547810000000     0.100740000000     0.413065   
C306     C      0.758200000000     0.004820000000     0.546270000000     0.411351   
C307     C      0.773530000000     0.580790000000     0.089910000000     0.415548   
C308     C      0.924400000000     0.976450000000     0.543320000000     0.41401    
C309     C      0.898720000000     0.008740000000     0.457880000000     0.410647   
C310     C      0.822100000000     0.645990000000     0.042530000000     0.413445   
C311     C      0.931970000000     0.628000000000     0.053790000000     0.416612   
C312     C      0.791980000000     0.019450000000     0.456830000000     0.413849   
C313     C      0.970650000000     0.892810000000     0.585290000000    -0.0106835  
C314     C      0.935910000000     0.918820000000     0.576350000000    -0.00649149 
C315     C      0.948810000000     0.685060000000     0.085810000000    -0.00478669 
C316     C      0.983510000000     0.709150000000     0.584940000000    -0.0118728  
C317     C      0.726320000000     0.954980000000     0.581400000000    -0.00244412 
C318     C      0.730270000000     0.922630000000     0.555700000000    -0.00836476 
C319     C      0.788200000000     0.700650000000     0.504210000000    -0.0075819  
C320     C      0.747370000000     0.700860000000     0.022000000000    -0.00795153 
C321     C      0.981280000000     0.988900000000     0.412390000000    -0.00149698 
C322     C      0.944920000000     0.514280000000     0.404930000000    -0.00759343 
C323     C      0.756730000000     0.537320000000     0.399960000000    -0.00945866 
C324     C      0.760800000000     0.024930000000     0.360180000000    -0.00848691 
C325     C      0.745380000000     0.586110000000     0.151520000000    -0.0101964  
C326     C      0.707160000000     0.573070000000     0.170620000000    -0.00970374 
C327     C      0.962070000000     0.059370000000     0.189290000000    -0.00951014 
C328     C      0.953810000000     0.527140000000     0.163660000000    -0.00367608 
C329     C      0.115880000000     0.682770000000     0.442070000000    -0.00999579 
C330     C      0.620170000000     0.666740000000     0.404340000000    -0.00895566 
C331     C      0.119930000000     0.912160000000     0.395730000000    -0.0110813  
C332     C      0.088560000000     0.904050000000     0.425160000000    -0.00885743 
C333     C      0.592180000000     0.944710000000     0.172290000000    -0.00931733 
C334     C      0.071050000000     0.915520000000     0.147690000000    -0.0110009  
C335     C      0.569670000000     0.665220000000     0.180630000000    -0.00864197 
C336     C      0.601000000000     0.673730000000     0.151230000000    -0.0099284  
C337     C      0.682470000000     0.573210000000     0.728210000000     0.409547   
C338     C      0.090120000000     0.947520000000     0.836370000000     0.4082     
C339     C      0.708400000000     0.557980000000     0.828030000000     0.412553   
C340     C      0.057790000000     0.968700000000     0.733730000000     0.413814   
C341     C      0.013520000000     0.053570000000     0.739630000000     0.4119     
C342     C      0.625310000000     0.592180000000     0.873910000000     0.412895   
C343     C      0.597820000000     0.620630000000     0.728690000000     0.406502   
C344     C      0.055450000000     0.013550000000     0.881270000000     0.410318   
C345     C      0.628790000000     0.725600000000     0.625750000000     0.4012     
C346     C      0.021780000000     0.854460000000     0.034480000000     0.399111   
C347     C      0.605230000000     0.845370000000     0.643860000000     0.403547   
C348     C      0.024590000000     0.746270000000     0.045070000000     0.398459   
C349     C      0.091950000000     0.727420000000     0.966420000000     0.413449   
C350     C      0.694710000000     0.867920000000     0.578680000000     0.409309   
C351     C      0.703640000000     0.744330000000     0.555620000000     0.409755   
C352     C      0.102770000000     0.862940000000     0.960720000000     0.4069     
C353     C      0.933750000000     0.554020000000     0.601810000000     0.412152   
C354     C      0.766430000000     0.000810000000     0.035390000000     0.410581   
C355     C      0.766350000000     0.591470000000     0.590150000000     0.415752   
C356     C      0.933290000000     0.975620000000     0.037950000000     0.414812   
C357     C      0.911620000000     0.012960000000     0.953920000000     0.412287   
C358     C      0.817760000000     0.648580000000     0.537780000000     0.413568   
C359     C      0.925530000000     0.629460000000     0.551180000000     0.415499   
C360     C      0.803190000000     0.022760000000     0.950670000000     0.414123   
C361     C      0.977070000000     0.889200000000     0.075690000000    -0.0107421  
C362     C      0.943400000000     0.916850000000     0.068970000000    -0.00570339 
C363     C      0.944730000000     0.687190000000     0.580790000000    -0.00619711 
C364     C      0.985430000000     0.710000000000     0.089330000000    -0.0129547  
C365     C      0.733500000000     0.948560000000     0.066190000000    -0.002146   
C366     C      0.737940000000     0.916860000000     0.039740000000    -0.00913372 
C367     C      0.792130000000     0.699750000000     0.012110000000    -0.00781513 
C368     C      0.744250000000     0.703900000000     0.516360000000    -0.0065545  
C369     C      0.996870000000     0.992350000000     0.916810000000     6.57091e-05
C370     C      0.962110000000     0.518550000000     0.905470000000    -0.00769033 
C371     C      0.766250000000     0.541980000000     0.895540000000    -0.00906134 
C372     C      0.772410000000     0.034050000000     0.854660000000    -0.00716392 
C373     C      0.737070000000     0.604320000000     0.650700000000    -0.00774846 
C374     C      0.721760000000     0.570750000000     0.671000000000    -0.00973262 
C375     C      0.975010000000     0.075790000000     0.686300000000    -0.00868394 
C376     C      0.952560000000     0.543930000000     0.666540000000    -0.00637176 
C377     C      0.105800000000     0.667170000000     0.939810000000    -0.0108115  
C378     C      0.608420000000     0.650610000000     0.902390000000    -0.00885202 
C379     C      0.119560000000     0.891000000000     0.863240000000    -0.0107198  
C380     C      0.104330000000     0.865800000000     0.893780000000    -0.00765604 
C381     C      0.575100000000     0.917920000000     0.693090000000    -0.00843094 
C382     C      0.057960000000     0.879760000000     0.683540000000    -0.00721199 
C383     C      0.579180000000     0.652230000000     0.671140000000    -0.00659113 
C384     C      0.616000000000     0.662320000000     0.648150000000    -0.00872773 
Co1      Co     0.092090000000     0.051120000000     0.245540000000     0.844838   
Co2      Co     0.618040000000     0.533210000000     0.343820000000     0.844131   
Co3      Co     0.131600000000     0.093110000000     0.298650000000     0.862604   
Co4      Co     0.553460000000     0.508900000000     0.300660000000     0.861277   
Co5      Co     0.114040000000     0.245310000000     0.042740000000     0.845114   
Co6      Co     0.607750000000     0.353880000000     0.563470000000     0.836993   
Co7      Co     0.148160000000     0.300210000000     0.084430000000     0.831212   
Co8      Co     0.576530000000     0.306190000000     0.512090000000     0.843594   
Co9      Co     0.419240000000     0.054200000000     0.023420000000     0.921908   
Co10     Co     0.299480000000     0.571580000000     0.518400000000     0.919843   
Co11     Co     0.362720000000     0.081890000000     0.077040000000     0.912227   
Co12     Co     0.343080000000     0.502860000000     0.520440000000     0.911854   
Co13     Co     0.101880000000     0.039440000000     0.737390000000     0.894831   
Co14     Co     0.629940000000     0.520030000000     0.838070000000     0.898906   
Co15     Co     0.133700000000     0.084800000000     0.794340000000     0.895443   
Co16     Co     0.554010000000     0.513890000000     0.799830000000     0.896484   
Co17     Co     0.114410000000     0.249510000000     0.550210000000     0.847791   
Co18     Co     0.611420000000     0.353150000000     0.040730000000     0.841367   
Co19     Co     0.154000000000     0.298200000000     0.594930000000     0.84157    
Co20     Co     0.573690000000     0.298100000000     0.001830000000     0.835401   
Co21     Co     0.409900000000     0.054130000000     0.524360000000     0.917925   
Co22     Co     0.307270000000     0.570340000000     0.016520000000     0.916604   
Co23     Co     0.355420000000     0.086300000000     0.577580000000     0.90914    
Co24     Co     0.352590000000     0.502780000000     0.015050000000     0.909002   
Co25     Co     0.091820000000     0.551320000000     0.245260000000     0.845538   
Co26     Co     0.618350000000     0.032760000000     0.344130000000     0.843083   
Co27     Co     0.130820000000     0.593750000000     0.298400000000     0.86349    
Co28     Co     0.553930000000     0.008510000000     0.300840000000     0.859321   
Co29     Co     0.113970000000     0.745410000000     0.042350000000     0.84532    
Co30     Co     0.607690000000     0.854040000000     0.563930000000     0.837047   
Co31     Co     0.148070000000     0.800240000000     0.084150000000     0.831221   
Co32     Co     0.576220000000     0.806420000000     0.512630000000     0.843139   
Co33     Co     0.418870000000     0.554250000000     0.023110000000     0.922018   
Co34     Co     0.299430000000     0.071390000000     0.518600000000     0.919893   
Co35     Co     0.362550000000     0.581950000000     0.076940000000     0.912433   
Co36     Co     0.343080000000     0.002700000000     0.521100000000     0.909821   
Co37     Co     0.101260000000     0.539130000000     0.737230000000     0.895421   
Co38     Co     0.630750000000     0.020110000000     0.838100000000     0.898703   
Co39     Co     0.132750000000     0.584630000000     0.794200000000     0.894913   
Co40     Co     0.554660000000     0.014320000000     0.800050000000     0.895867   
Co41     Co     0.114410000000     0.749620000000     0.550340000000     0.847864   
Co42     Co     0.611350000000     0.853280000000     0.040550000000     0.841353   
Co43     Co     0.153800000000     0.798220000000     0.595290000000     0.840891   
Co44     Co     0.573520000000     0.798300000000     0.001640000000     0.835259   
Co45     Co     0.409970000000     0.554210000000     0.523910000000     0.918121   
Co46     Co     0.307580000000     0.070310000000     0.016510000000     0.916513   
Co47     Co     0.355570000000     0.586100000000     0.577390000000     0.909428   
Co48     Co     0.352950000000     0.002770000000     0.015170000000     0.906678   
Co49     Co     0.592070000000     0.051490000000     0.245690000000     0.844268   
Co50     Co     0.117890000000     0.532900000000     0.343640000000     0.844821   
Co51     Co     0.632030000000     0.093220000000     0.298670000000     0.861603   
Co52     Co     0.053200000000     0.508660000000     0.300500000000     0.862043   
Co53     Co     0.613970000000     0.245480000000     0.042910000000     0.845004   
Co54     Co     0.107680000000     0.353950000000     0.563310000000     0.8367     
Co55     Co     0.648290000000     0.300320000000     0.084500000000     0.831227   
Co56     Co     0.076430000000     0.306150000000     0.512090000000     0.843133   
Co57     Co     0.919230000000     0.053970000000     0.023070000000     0.921833   
Co58     Co     0.799430000000     0.571410000000     0.518360000000     0.919954   
Co59     Co     0.862700000000     0.081650000000     0.076710000000     0.912145   
Co60     Co     0.843070000000     0.502720000000     0.520490000000     0.911953   
Co61     Co     0.601570000000     0.039700000000     0.737600000000     0.89551    
Co62     Co     0.130190000000     0.519670000000     0.837990000000     0.898433   
Co63     Co     0.633380000000     0.085210000000     0.794440000000     0.896308   
Co64     Co     0.054390000000     0.513520000000     0.799580000000     0.895343   
Co65     Co     0.614350000000     0.249470000000     0.550250000000     0.847898   
Co66     Co     0.111260000000     0.352980000000     0.040590000000     0.841222   
Co67     Co     0.654100000000     0.298040000000     0.594930000000     0.841778   
Co68     Co     0.073720000000     0.297870000000     0.001630000000     0.835375   
Co69     Co     0.909860000000     0.054000000000     0.524370000000     0.917646   
Co70     Co     0.807230000000     0.570220000000     0.016190000000     0.916711   
Co71     Co     0.855360000000     0.086240000000     0.577520000000     0.909074   
Co72     Co     0.852530000000     0.502650000000     0.014600000000     0.908975   
Co73     Co     0.591800000000     0.551690000000     0.245420000000     0.845082   
Co74     Co     0.118200000000     0.032440000000     0.343960000000     0.843846   
Co75     Co     0.631240000000     0.593860000000     0.298430000000     0.862434   
Co76     Co     0.053670000000     0.008260000000     0.300670000000     0.860102   
Co77     Co     0.613900000000     0.745590000000     0.042520000000     0.845103   
Co78     Co     0.107620000000     0.854100000000     0.563760000000     0.836635   
Co79     Co     0.648190000000     0.800350000000     0.084220000000     0.831229   
Co80     Co     0.076130000000     0.806380000000     0.512620000000     0.842775   
Co81     Co     0.918860000000     0.554030000000     0.022770000000     0.921906   
Co82     Co     0.799370000000     0.071200000000     0.518560000000     0.920065   
Co83     Co     0.862540000000     0.581720000000     0.076610000000     0.912055   
Co84     Co     0.843070000000     0.002550000000     0.521150000000     0.909908   
Co85     Co     0.600950000000     0.539390000000     0.737440000000     0.896111   
Co86     Co     0.130990000000     0.019750000000     0.838020000000     0.898272   
Co87     Co     0.632410000000     0.585050000000     0.794300000000     0.895632   
Co88     Co     0.055040000000     0.013920000000     0.799790000000     0.894884   
Co89     Co     0.614340000000     0.749590000000     0.550390000000     0.847877   
Co90     Co     0.111210000000     0.853110000000     0.040400000000     0.841275   
Co91     Co     0.653890000000     0.798060000000     0.595310000000     0.841292   
Co92     Co     0.073560000000     0.798060000000     0.001430000000     0.83536    
Co93     Co     0.909940000000     0.554090000000     0.523920000000     0.917989   
Co94     Co     0.807540000000     0.070170000000     0.016170000000     0.916478   
Co95     Co     0.855530000000     0.586040000000     0.577330000000     0.909185   
Co96     Co     0.852890000000     0.002630000000     0.014720000000     0.906576   
H1       H      0.459990000000     0.363140000000     0.534490000000     0.107265   
H2       H      0.489270000000     0.453760000000     0.047450000000     0.110753   
H3       H      0.467410000000     0.371030000000     0.097580000000     0.0337833  
H4       H      0.496510000000     0.408250000000     0.595560000000     0.0511695  
H5       H      0.431460000000     0.426400000000     0.095460000000     0.035981   
H6       H      0.411750000000     0.404230000000     0.560040000000     0.0457451  
H7       H      0.468760000000     0.164540000000     0.530710000000     0.111017   
H8       H      0.462400000000     0.246270000000     0.048100000000     0.104548   
H9       H      0.421130000000     0.201750000000     0.081380000000     0.0415308  
H10      H      0.444280000000     0.170700000000     0.112250000000     0.0451557  
H11      H      0.509060000000     0.190740000000     0.586990000000     0.0542723  
H12      H      0.481370000000     0.225530000000     0.609950000000     0.0359447  
H13      H      0.204820000000     0.496490000000     0.044700000000     0.109031   
H14      H      0.255060000000     0.379140000000     0.586930000000     0.105892   
H15      H      0.252560000000     0.455190000000     0.599720000000     0.044171   
H16      H      0.204740000000     0.445580000000     0.082110000000     0.0424444  
H17      H      0.259520000000     0.424370000000     0.541050000000     0.0501694  
H18      H      0.215340000000     0.419910000000     0.018050000000     0.0580079  
H19      H      0.325810000000     0.198990000000     0.062420000000     0.103535   
H20      H      0.265580000000     0.240610000000     0.558280000000     0.107256   
H21      H      0.299790000000     0.228140000000     0.497000000000     0.0366746  
H22      H      0.289600000000     0.183320000000     0.479250000000     0.0458077  
H23      H      0.237500000000     0.173780000000     0.031910000000     0.0563622  
H24      H      0.229960000000     0.207130000000     0.997410000000     0.0477654  
H25      H      0.531140000000     0.018660000000     0.435490000000     0.110467   
H26      H      0.394850000000     0.477670000000     0.410920000000     0.104852   
H27      H      0.481390000000     0.467090000000     0.392690000000     0.0473714  
H28      H      0.478320000000     0.478120000000     0.440070000000     0.0455719  
H29      H      0.439140000000     0.014730000000     0.375950000000     0.0447885  
H30      H      0.451290000000     0.042140000000     0.414880000000     0.055559   
H31      H      0.278790000000     0.484020000000     0.415050000000     0.10535    
H32      H      0.261690000000     0.074010000000     0.327480000000     0.105057   
H33      H      0.225930000000     0.039570000000     0.407880000000     0.0580816  
H34      H      0.272010000000     0.064500000000     0.402940000000     0.051167   
H35      H      0.245610000000     0.500300000000     0.355520000000     0.0479807  
H36      H      0.292950000000     0.524630000000     0.353350000000     0.036721   
H37      H      0.212880000000     0.085010000000     0.100870000000     0.106549   
H38      H      0.231880000000     0.598890000000     0.219070000000     0.105235   
H39      H      0.271930000000     0.571440000000     0.161870000000     0.0484418  
H40      H      0.250340000000     0.115440000000     0.158280000000     0.0447927  
H41      H      0.205740000000     0.542850000000     0.169060000000     0.0464869  
H42      H      0.180210000000     0.084150000000     0.157600000000     0.0477359  
H43      H      0.440580000000     0.038580000000     0.240750000000     0.102924   
H44      H      0.495250000000     0.530780000000     0.119540000000     0.107875   
H45      H      0.435580000000     0.578340000000     0.187750000000     0.043119   
H46      H      0.488980000000     0.574720000000     0.180130000000     0.0566259  
H47      H      0.421330000000     0.019660000000     0.165950000000     0.0436441  
H48      H      0.471940000000     0.003590000000     0.173380000000     0.0409897  
H49      H      0.597270000000     0.232800000000     0.416060000000     0.105553   
H50      H      0.131560000000     0.114480000000     0.432260000000     0.108359   
H51      H      0.145930000000     0.180010000000     0.456580000000     0.0506475  
H52      H      0.594780000000     0.166740000000     0.457720000000     0.0499056  
H53      H      0.145870000000     0.179110000000     0.389830000000     0.0478546  
H54      H      0.594080000000     0.171500000000     0.388470000000     0.0480135  
H55      H      0.581640000000     0.399440000000     0.350550000000     0.105202   
H56      H      0.120180000000     0.430270000000     0.468460000000     0.107542   
H57      H      0.139670000000     0.388360000000     0.391820000000     0.0430429  
H58      H      0.138960000000     0.435970000000     0.403840000000     0.0559041  
H59      H      0.575100000000     0.377070000000     0.419330000000     0.0537299  
H60      H      0.564580000000     0.424910000000     0.423490000000     0.0459546  
H61      H      0.564670000000     0.418430000000     0.219070000000     0.104782   
H62      H      0.098880000000     0.369920000000     0.175320000000     0.105367   
H63      H      0.083120000000     0.471990000000     0.159840000000     0.0481432  
H64      H      0.625050000000     0.440910000000     0.173020000000     0.0463304  
H65      H      0.069880000000     0.426180000000     0.119720000000     0.0511279  
H66      H      0.540400000000     0.411690000000     0.156510000000     0.0385638  
H67      H      0.096280000000     0.188400000000     0.228970000000     0.104532   
H68      H      0.620490000000     0.224080000000     0.177320000000     0.106702   
H69      H      0.554930000000     0.139160000000     0.174940000000     0.0489144  
H70      H      0.046780000000     0.186500000000     0.180680000000     0.0382761  
H71      H      0.088300000000     0.165970000000     0.124870000000     0.0520832  
H72      H      0.128310000000     0.156150000000     0.155770000000     0.0481898  
H73      H      0.460250000000     0.357400000000     0.029460000000     0.106547   
H74      H      0.480820000000     0.454780000000     0.551580000000     0.11128    
H75      H      0.460260000000     0.373640000000     0.605410000000     0.0349311  
H76      H      0.504900000000     0.403780000000     0.085590000000     0.0506031  
H77      H      0.422210000000     0.428550000000     0.600650000000     0.0373818  
H78      H      0.418150000000     0.404360000000     0.054230000000     0.0466897  
H79      H      0.475450000000     0.164540000000     0.036620000000     0.112661   
H80      H      0.463440000000     0.245750000000     0.541260000000     0.105049   
H81      H      0.418600000000     0.206190000000     0.574050000000     0.0410623  
H82      H      0.437410000000     0.174420000000     0.606500000000     0.0465649  
H83      H      0.512830000000     0.193620000000     0.093640000000     0.0546463  
H84      H      0.481430000000     0.227270000000     0.114530000000     0.0350659  
H85      H      0.197550000000     0.502760000000     0.558480000000     0.108653   
H86      H      0.256840000000     0.372770000000     0.074450000000     0.10547    
H87      H      0.258880000000     0.448020000000     0.086310000000     0.0437426  
H88      H      0.198290000000     0.452440000000     0.596890000000     0.0436667  
H89      H      0.267990000000     0.417680000000     0.027930000000     0.0494433  
H90      H      0.205770000000     0.424340000000     0.534530000000     0.0579342  
H91      H      0.325530000000     0.202870000000     0.551690000000     0.103183   
H92      H      0.263220000000     0.238740000000     0.065390000000     0.106793   
H93      H      0.303620000000     0.228010000000     0.007920000000     0.0368379  
H94      H      0.296420000000     0.185010000000     0.986410000000     0.0460568  
H95      H      0.232840000000     0.177060000000     0.525250000000     0.0568143  
H96      H      0.225550000000     0.212240000000     0.492540000000     0.0453544  
H97      H      0.553570000000     0.012200000000     0.937270000000     0.110158   
H98      H      0.409710000000     0.483950000000     0.906130000000     0.105312   
H99      H      0.494040000000     0.467910000000     0.899700000000     0.0469955  
H100     H      0.491400000000     0.484310000000     0.945520000000     0.0475957  
H101     H      0.460900000000     0.019670000000     0.876300000000     0.0496581  
H102     H      0.469210000000     0.046530000000     0.916540000000     0.0558297  
H103     H      0.292090000000     0.488830000000     0.907540000000     0.105902   
H104     H      0.264280000000     0.084530000000     0.826430000000     0.105132   
H105     H      0.235680000000     0.041240000000     0.902910000000     0.0567813  
H106     H      0.279110000000     0.070220000000     0.900920000000     0.050715   
H107     H      0.261650000000     0.506380000000     0.849060000000     0.0472326  
H108     H      0.304130000000     0.537260000000     0.848650000000     0.0368001  
H109     H      0.205750000000     0.101310000000     0.599880000000     0.107264   
H110     H      0.239460000000     0.595040000000     0.721600000000     0.104522   
H111     H      0.268350000000     0.610770000000     0.659390000000     0.0490839  
H112     H      0.216510000000     0.127490000000     0.658010000000     0.0409047  
H113     H      0.245290000000     0.548570000000     0.668490000000     0.0431486  
H114     H      0.194440000000     0.060170000000     0.658840000000     0.0521973  
H115     H      0.453570000000     0.070540000000     0.741200000000     0.102376   
H116     H      0.489960000000     0.537580000000     0.619510000000     0.108231   
H117     H      0.455690000000     0.600130000000     0.682750000000     0.040041   
H118     H      0.504040000000     0.580090000000     0.673300000000     0.0538636  
H119     H      0.419790000000     0.046490000000     0.672850000000     0.0466749  
H120     H      0.463980000000     0.018410000000     0.677680000000     0.0437937  
H121     H      0.578730000000     0.214060000000     0.914110000000     0.105184   
H122     H      0.128460000000     0.100090000000     0.929280000000     0.107948   
H123     H      0.136570000000     0.166500000000     0.953590000000     0.0518344  
H124     H      0.585320000000     0.150740000000     0.956960000000     0.0478221  
H125     H      0.131710000000     0.166250000000     0.886030000000     0.0487751  
H126     H      0.580400000000     0.152180000000     0.888660000000     0.0451025  
H127     H      0.558810000000     0.398960000000     0.842440000000     0.104081   
H128     H      0.119410000000     0.408830000000     0.932150000000     0.111043   
H129     H      0.132130000000     0.373370000000     0.841830000000     0.0362663  
H130     H      0.144160000000     0.408650000000     0.873070000000     0.0518844  
H131     H      0.621160000000     0.340150000000     0.893190000000     0.0442794  
H132     H      0.571840000000     0.358270000000     0.890010000000     0.0485529  
H133     H      0.520830000000     0.424000000000     0.725530000000     0.103008   
H134     H      0.103880000000     0.341580000000     0.699060000000     0.104883   
H135     H      0.076680000000     0.433820000000     0.666020000000     0.0512027  
H136     H      0.604750000000     0.415040000000     0.706010000000     0.047541   
H137     H      0.036760000000     0.380530000000     0.659670000000     0.0471763  
H138     H      0.541170000000     0.368700000000     0.706790000000     0.0348874  
H139     H      0.091990000000     0.176610000000     0.723630000000     0.104231   
H140     H      0.638600000000     0.208740000000     0.678420000000     0.107044   
H141     H      0.567540000000     0.125800000000     0.662690000000     0.0473831  
H142     H      0.055900000000     0.173300000000     0.667340000000     0.0393514  
H143     H      0.109130000000     0.156360000000     0.619620000000     0.0515102  
H144     H      0.141930000000     0.145080000000     0.656410000000     0.0441515  
H145     H      0.459760000000     0.863260000000     0.535590000000     0.107306   
H146     H      0.489460000000     0.953720000000     0.048190000000     0.111022   
H147     H      0.467330000000     0.870780000000     0.097870000000     0.0337557  
H148     H      0.496590000000     0.908330000000     0.596560000000     0.0512378  
H149     H      0.431620000000     0.926310000000     0.096020000000     0.0360272  
H150     H      0.411680000000     0.904430000000     0.561330000000     0.0458016  
H151     H      0.469060000000     0.664480000000     0.531040000000     0.11103    
H152     H      0.462330000000     0.746270000000     0.047920000000     0.104516   
H153     H      0.421140000000     0.701750000000     0.081230000000     0.0415289  
H154     H      0.444340000000     0.670640000000     0.112010000000     0.0451106  
H155     H      0.509390000000     0.690520000000     0.587270000000     0.0542943  
H156     H      0.481670000000     0.725080000000     0.610540000000     0.0359391  
H157     H      0.205040000000     0.996410000000     0.044260000000     0.109318   
H158     H      0.255000000000     0.879050000000     0.587540000000     0.105956   
H159     H      0.252300000000     0.955230000000     0.600310000000     0.0443662  
H160     H      0.204870000000     0.945560000000     0.081770000000     0.0425793  
H161     H      0.259700000000     0.924300000000     0.541750000000     0.0502392  
H162     H      0.215410000000     0.919870000000     0.017720000000     0.0581079  
H163     H      0.325790000000     0.699070000000     0.062180000000     0.103554   
H164     H      0.265530000000     0.740630000000     0.558920000000     0.107329   
H165     H      0.299980000000     0.728460000000     0.497720000000     0.0367315  
H166     H      0.289850000000     0.683760000000     0.479670000000     0.0458483  
H167     H      0.237430000000     0.673820000000     0.031620000000     0.0563864  
H168     H      0.229930000000     0.707180000000     0.997130000000     0.0477971  
H169     H      0.531120000000     0.519010000000     0.435400000000     0.110602   
H170     H      0.395030000000     0.976860000000     0.411750000000     0.1048     
H171     H      0.481600000000     0.966750000000     0.392410000000     0.0474127  
H172     H      0.478890000000     0.977130000000     0.439920000000     0.0455146  
H173     H      0.439360000000     0.515620000000     0.375310000000     0.0448909  
H174     H      0.450990000000     0.542950000000     0.413880000000     0.0550383  
H175     H      0.280230000000     0.983570000000     0.415140000000     0.105893   
H176     H      0.261060000000     0.575770000000     0.327480000000     0.105137   
H177     H      0.224240000000     0.538560000000     0.407770000000     0.0581807  
H178     H      0.269590000000     0.565250000000     0.403610000000     0.0522995  
H179     H      0.245320000000     0.998740000000     0.356270000000     0.0491933  
H180     H      0.292790000000     0.021770000000     0.352700000000     0.0363767  
H181     H      0.212780000000     0.585460000000     0.100970000000     0.106623   
H182     H      0.232340000000     0.098050000000     0.219030000000     0.105289   
H183     H      0.271940000000     0.070720000000     0.161730000000     0.0483316  
H184     H      0.250000000000     0.616020000000     0.158290000000     0.044756   
H185     H      0.205490000000     0.042520000000     0.168760000000     0.0464361  
H186     H      0.180090000000     0.584200000000     0.157570000000     0.0477408  
H187     H      0.440290000000     0.538970000000     0.240310000000     0.103022   
H188     H      0.495310000000     0.030890000000     0.120070000000     0.107765   
H189     H      0.435790000000     0.078330000000     0.188420000000     0.0430091  
H190     H      0.489130000000     0.074570000000     0.180600000000     0.0566472  
H191     H      0.421500000000     0.519440000000     0.165590000000     0.0437358  
H192     H      0.472250000000     0.503710000000     0.173030000000     0.0412432  
H193     H      0.596150000000     0.733320000000     0.416240000000     0.105576   
H194     H      0.130120000000     0.614900000000     0.432070000000     0.10832    
H195     H      0.145480000000     0.680570000000     0.455930000000     0.0505857  
H196     H      0.594420000000     0.667230000000     0.458100000000     0.0499357  
H197     H      0.143830000000     0.679590000000     0.389170000000     0.0480749  
H198     H      0.592000000000     0.671760000000     0.388890000000     0.047781   
H199     H      0.581760000000     0.899040000000     0.350880000000     0.105289   
H200     H      0.120030000000     0.930440000000     0.468910000000     0.1078     
H201     H      0.139220000000     0.887670000000     0.392500000000     0.0431482  
H202     H      0.139250000000     0.935380000000     0.404140000000     0.0561729  
H203     H      0.574370000000     0.877470000000     0.419980000000     0.0537521  
H204     H      0.564710000000     0.925490000000     0.423840000000     0.0460495  
H205     H      0.565200000000     0.918260000000     0.219030000000     0.104898   
H206     H      0.099040000000     0.869930000000     0.175160000000     0.105427   
H207     H      0.083360000000     0.972040000000     0.159890000000     0.0484377  
H208     H      0.625340000000     0.940940000000     0.172860000000     0.0464712  
H209     H      0.070110000000     0.926320000000     0.119650000000     0.0511936  
H210     H      0.540620000000     0.911820000000     0.156460000000     0.0386415  
H211     H      0.095130000000     0.688580000000     0.228310000000     0.104509   
H212     H      0.620360000000     0.723910000000     0.176880000000     0.106683   
H213     H      0.554770000000     0.638930000000     0.174040000000     0.0488648  
H214     H      0.046340000000     0.686280000000     0.179490000000     0.038211   
H215     H      0.088650000000     0.665760000000     0.124210000000     0.0521496  
H216     H      0.128280000000     0.656060000000     0.155540000000     0.0481356  
H217     H      0.460130000000     0.857400000000     0.029770000000     0.10658    
H218     H      0.480830000000     0.954960000000     0.552730000000     0.111507   
H219     H      0.460320000000     0.873760000000     0.606480000000     0.034937   
H220     H      0.504940000000     0.903490000000     0.086050000000     0.0506116  
H221     H      0.422390000000     0.928770000000     0.601880000000     0.0373964  
H222     H      0.418170000000     0.904430000000     0.054740000000     0.0467755  
H223     H      0.475260000000     0.664530000000     0.036300000000     0.11263    
H224     H      0.463370000000     0.745740000000     0.542100000000     0.105082   
H225     H      0.418820000000     0.705780000000     0.574770000000     0.0411247  
H226     H      0.437910000000     0.673830000000     0.606920000000     0.0464364  
H227     H      0.512880000000     0.693480000000     0.093210000000     0.0546158  
H228     H      0.481610000000     0.727130000000     0.114290000000     0.0350387  
H229     H      0.197440000000     0.002660000000     0.558760000000     0.108031   
H230     H      0.256870000000     0.872660000000     0.074080000000     0.105477   
H231     H      0.259010000000     0.947910000000     0.085980000000     0.0439583  
H232     H      0.198060000000     0.952380000000     0.597230000000     0.0439736  
H233     H      0.268060000000     0.917570000000     0.027590000000     0.0494865  
H234     H      0.205990000000     0.924200000000     0.534930000000     0.0580229  
H235     H      0.325600000000     0.702850000000     0.552290000000     0.103224   
H236     H      0.263120000000     0.738730000000     0.065180000000     0.106751   
H237     H      0.303570000000     0.728050000000     0.007680000000     0.036876   
H238     H      0.296410000000     0.685040000000     0.986200000000     0.0460925  
H239     H      0.232980000000     0.677230000000     0.525570000000     0.0568633  
H240     H      0.225750000000     0.712500000000     0.492950000000     0.0454843  
H241     H      0.552470000000     0.512030000000     0.937080000000     0.110339   
H242     H      0.410560000000     0.983790000000     0.906380000000     0.105811   
H243     H      0.495280000000     0.967950000000     0.899990000000     0.0469514  
H244     H      0.492680000000     0.984270000000     0.945820000000     0.0477351  
H245     H      0.459960000000     0.520160000000     0.875880000000     0.0495484  
H246     H      0.468260000000     0.546810000000     0.915730000000     0.0554347  
H247     H      0.293860000000     0.989110000000     0.907050000000     0.106419   
H248     H      0.263260000000     0.585050000000     0.826610000000     0.105208   
H249     H      0.233910000000     0.539810000000     0.903210000000     0.056749   
H250     H      0.276700000000     0.570040000000     0.901660000000     0.0515772  
H251     H      0.262260000000     0.005730000000     0.849020000000     0.0472184  
H252     H      0.304860000000     0.035710000000     0.847510000000     0.0363654  
H253     H      0.205970000000     0.601020000000     0.600010000000     0.107167   
H254     H      0.240250000000     0.094980000000     0.721550000000     0.104625   
H255     H      0.267930000000     0.111790000000     0.659210000000     0.0490211  
H256     H      0.217310000000     0.627440000000     0.658070000000     0.0409817  
H257     H      0.246310000000     0.049140000000     0.668270000000     0.0430727  
H258     H      0.193750000000     0.560490000000     0.658740000000     0.052201   
H259     H      0.452830000000     0.569780000000     0.740760000000     0.102465   
H260     H      0.489880000000     0.038250000000     0.620060000000     0.10808    
H261     H      0.456700000000     0.101080000000     0.683210000000     0.039914   
H262     H      0.504640000000     0.080370000000     0.673540000000     0.0538396  
H263     H      0.419800000000     0.544970000000     0.672280000000     0.0467332  
H264     H      0.464530000000     0.517580000000     0.677090000000     0.0440538  
H265     H      0.577920000000     0.714300000000     0.913820000000     0.10516    
H266     H      0.126940000000     0.600110000000     0.929100000000     0.107955   
H267     H      0.135940000000     0.666670000000     0.952870000000     0.0518227  
H268     H      0.584690000000     0.651090000000     0.957020000000     0.047908   
H269     H      0.129930000000     0.666130000000     0.885350000000     0.0489492  
H270     H      0.578600000000     0.652000000000     0.888820000000     0.0449461  
H271     H      0.559030000000     0.899320000000     0.842490000000     0.104126   
H272     H      0.119530000000     0.908940000000     0.931980000000     0.11122    
H273     H      0.132260000000     0.873440000000     0.841620000000     0.0363107  
H274     H      0.144540000000     0.908610000000     0.872910000000     0.0520197  
H275     H      0.621460000000     0.840270000000     0.893090000000     0.0442184  
H276     H      0.572100000000     0.858280000000     0.889790000000     0.0485242  
H277     H      0.521080000000     0.924530000000     0.725780000000     0.103092   
H278     H      0.103970000000     0.841710000000     0.699490000000     0.104885   
H279     H      0.077040000000     0.933960000000     0.666310000000     0.0514388  
H280     H      0.605010000000     0.915280000000     0.706360000000     0.0475884  
H281     H      0.036860000000     0.880760000000     0.660230000000     0.0471502  
H282     H      0.541370000000     0.869080000000     0.707360000000     0.0348984  
H283     H      0.091230000000     0.676260000000     0.723190000000     0.104339   
H284     H      0.638260000000     0.708470000000     0.678480000000     0.107066   
H285     H      0.567560000000     0.625350000000     0.662070000000     0.047425   
H286     H      0.055680000000     0.672800000000     0.666620000000     0.0393733  
H287     H      0.109510000000     0.656130000000     0.619370000000     0.0514935  
H288     H      0.141960000000     0.644900000000     0.656440000000     0.0441375  
H289     H      0.959850000000     0.363000000000     0.534630000000     0.107294   
H290     H      0.989100000000     0.453420000000     0.047070000000     0.110776   
H291     H      0.967010000000     0.370680000000     0.097110000000     0.033677   
H292     H      0.996460000000     0.408120000000     0.595670000000     0.0512282  
H293     H      0.931050000000     0.426020000000     0.094900000000     0.0359745  
H294     H      0.911680000000     0.404170000000     0.560200000000     0.0457669  
H295     H      0.968870000000     0.164340000000     0.530760000000     0.111045   
H296     H      0.962460000000     0.245950000000     0.047860000000     0.104513   
H297     H      0.921200000000     0.201460000000     0.081190000000     0.0415423  
H298     H      0.944380000000     0.170370000000     0.112000000000     0.0451331  
H299     H      0.009250000000     0.190500000000     0.586920000000     0.0541703  
H300     H      0.981630000000     0.225240000000     0.610030000000     0.0360003  
H301     H      0.704790000000     0.496320000000     0.044270000000     0.109087   
H302     H      0.755220000000     0.378920000000     0.586840000000     0.105891   
H303     H      0.752540000000     0.455020000000     0.599770000000     0.0442064  
H304     H      0.704680000000     0.445410000000     0.081640000000     0.0424624  
H305     H      0.759650000000     0.424240000000     0.541090000000     0.0501367  
H306     H      0.715780000000     0.419630000000     0.017660000000     0.05796    
H307     H      0.825650000000     0.198750000000     0.062370000000     0.103506   
H308     H      0.765500000000     0.240310000000     0.558120000000     0.107363   
H309     H      0.799510000000     0.227900000000     0.496680000000     0.0366995  
H310     H      0.789320000000     0.183040000000     0.479030000000     0.0458202  
H311     H      0.737330000000     0.173670000000     0.032020000000     0.0563029  
H312     H      0.729720000000     0.206980000000     0.997500000000     0.047781   
H313     H      0.031210000000     0.018020000000     0.435420000000     0.110463   
H314     H      0.894810000000     0.477450000000     0.410990000000     0.104888   
H315     H      0.981210000000     0.466760000000     0.392550000000     0.0473793  
H316     H      0.978250000000     0.477670000000     0.439960000000     0.0455252  
H317     H      0.939080000000     0.014540000000     0.376010000000     0.0448135  
H318     H      0.951420000000     0.041800000000     0.414990000000     0.0556282  
H319     H      0.778890000000     0.483750000000     0.415080000000     0.105343   
H320     H      0.762090000000     0.073420000000     0.327200000000     0.105042   
H321     H      0.726180000000     0.039470000000     0.407800000000     0.0582309  
H322     H      0.772390000000     0.064170000000     0.402740000000     0.05113    
H323     H      0.745600000000     0.499940000000     0.355550000000     0.0479747  
H324     H      0.793070000000     0.524060000000     0.353290000000     0.0367072  
H325     H      0.712860000000     0.084460000000     0.100610000000     0.106545   
H326     H      0.731960000000     0.598740000000     0.218730000000     0.105231   
H327     H      0.771610000000     0.570260000000     0.161550000000     0.0482429  
H328     H      0.751120000000     0.114650000000     0.158070000000     0.044885   
H329     H      0.704760000000     0.542930000000     0.168700000000     0.0466144  
H330     H      0.680210000000     0.084740000000     0.157330000000     0.0475965  
H331     H      0.940560000000     0.038630000000     0.240380000000     0.102912   
H332     H      0.995250000000     0.530540000000     0.119180000000     0.107779   
H333     H      0.935820000000     0.578320000000     0.187300000000     0.0431094  
H334     H      0.989210000000     0.574490000000     0.179750000000     0.0565592  
H335     H      0.921360000000     0.019580000000     0.165680000000     0.0436677  
H336     H      0.971950000000     0.003430000000     0.173080000000     0.0409027  
H337     H      0.096370000000     0.232500000000     0.416160000000     0.105564   
H338     H      0.632840000000     0.114860000000     0.432220000000     0.108348   
H339     H      0.646560000000     0.180300000000     0.456770000000     0.0506206  
H340     H      0.094130000000     0.166550000000     0.458020000000     0.0498357  
H341     H      0.647350000000     0.179450000000     0.390080000000     0.0476658  
H342     H      0.092610000000     0.171060000000     0.388800000000     0.0478353  
H343     H      0.081410000000     0.399150000000     0.350280000000     0.105184   
H344     H      0.620080000000     0.430500000000     0.468830000000     0.107529   
H345     H      0.639820000000     0.388750000000     0.392200000000     0.0430617  
H346     H      0.638960000000     0.436350000000     0.404230000000     0.0559353  
H347     H      0.075030000000     0.376800000000     0.419140000000     0.0537206  
H348     H      0.064570000000     0.424650000000     0.423240000000     0.0459578  
H349     H      0.062450000000     0.418580000000     0.218320000000     0.104901   
H350     H      0.599200000000     0.369970000000     0.175480000000     0.105124   
H351     H      0.585690000000     0.471900000000     0.160290000000     0.0486563  
H352     H      0.123240000000     0.442010000000     0.171780000000     0.047154   
H353     H      0.571190000000     0.426850000000     0.119960000000     0.0511719  
H354     H      0.039130000000     0.410420000000     0.155940000000     0.0377244  
H355     H      0.596710000000     0.188760000000     0.229310000000     0.10457    
H356     H      0.120420000000     0.223770000000     0.177130000000     0.106639   
H357     H      0.055240000000     0.138560000000     0.174360000000     0.0488931  
H358     H      0.546810000000     0.187140000000     0.181350000000     0.0382854  
H359     H      0.587720000000     0.166450000000     0.125240000000     0.0520845  
H360     H      0.627940000000     0.156390000000     0.155840000000     0.0482928  
H361     H      0.960120000000     0.357040000000     0.028990000000     0.106546   
H362     H      0.980800000000     0.454700000000     0.551710000000     0.111249   
H363     H      0.960180000000     0.373530000000     0.605500000000     0.0349324  
H364     H      0.004550000000     0.403430000000     0.085250000000     0.0503425  
H365     H      0.922200000000     0.428490000000     0.600800000000     0.0373731  
H366     H      0.917950000000     0.404050000000     0.053580000000     0.0466865  
H367     H      0.975490000000     0.164280000000     0.036360000000     0.112665   
H368     H      0.963480000000     0.245570000000     0.541400000000     0.105102   
H369     H      0.918750000000     0.205970000000     0.574240000000     0.0411295  
H370     H      0.937660000000     0.174130000000     0.606580000000     0.0465163  
H371     H      0.012910000000     0.193280000000     0.093370000000     0.0545125  
H372     H      0.981540000000     0.226940000000     0.114310000000     0.0350328  
H373     H      0.697530000000     0.502560000000     0.558490000000     0.108659   
H374     H      0.757160000000     0.372620000000     0.074190000000     0.105434   
H375     H      0.758780000000     0.448050000000     0.086080000000     0.0436437  
H376     H      0.698280000000     0.452210000000     0.596860000000     0.0438001  
H377     H      0.768370000000     0.417590000000     0.027830000000     0.0494556  
H378     H      0.705900000000     0.424140000000     0.534510000000     0.0578601  
H379     H      0.825460000000     0.202760000000     0.551340000000     0.103224   
H380     H      0.763170000000     0.238600000000     0.065420000000     0.106718   
H381     H      0.803430000000     0.227840000000     0.007890000000     0.0369044  
H382     H      0.796130000000     0.184880000000     0.986370000000     0.0461416  
H383     H      0.732710000000     0.176790000000     0.525150000000     0.0567627  
H384     H      0.725280000000     0.211970000000     0.492450000000     0.0453255  
H385     H      0.053580000000     0.011670000000     0.937020000000     0.110175   
H386     H      0.909730000000     0.483850000000     0.905720000000     0.10542    
H387     H      0.993990000000     0.467610000000     0.899230000000     0.047049   
H388     H      0.991350000000     0.483860000000     0.945100000000     0.0475662  
H389     H      0.961040000000     0.019500000000     0.875980000000     0.0496757  
H390     H      0.969440000000     0.046210000000     0.916310000000     0.0559021  
H391     H      0.792110000000     0.488960000000     0.907020000000     0.105866   
H392     H      0.764090000000     0.084720000000     0.826080000000     0.105053   
H393     H      0.735730000000     0.041470000000     0.902620000000     0.0567882  
H394     H      0.779240000000     0.070330000000     0.900500000000     0.0506533  
H395     H      0.761420000000     0.506580000000     0.848660000000     0.0472083  
H396     H      0.803940000000     0.537420000000     0.848160000000     0.0367696  
H397     H      0.705680000000     0.101280000000     0.599750000000     0.10721    
H398     H      0.738880000000     0.595740000000     0.721470000000     0.10457    
H399     H      0.768350000000     0.610650000000     0.659320000000     0.0491134  
H400     H      0.716640000000     0.127840000000     0.657740000000     0.0409574  
H401     H      0.744490000000     0.548700000000     0.668620000000     0.0431821  
H402     H      0.693830000000     0.060740000000     0.658820000000     0.0521005  
H403     H      0.953920000000     0.070440000000     0.741240000000     0.102371   
H404     H      0.989910000000     0.537600000000     0.619560000000     0.108269   
H405     H      0.956110000000     0.600240000000     0.682840000000     0.0399576  
H406     H      0.004280000000     0.579950000000     0.673230000000     0.0537687  
H407     H      0.919760000000     0.046890000000     0.672910000000     0.046696   
H408     H      0.963690000000     0.018480000000     0.677740000000     0.0437883  
H409     H      0.078980000000     0.213840000000     0.913900000000     0.105154   
H410     H      0.628600000000     0.100420000000     0.929390000000     0.107983   
H411     H      0.636270000000     0.166690000000     0.953930000000     0.0519016  
H412     H      0.085640000000     0.150570000000     0.956940000000     0.0478437  
H413     H      0.631840000000     0.166620000000     0.886350000000     0.0487036  
H414     H      0.080280000000     0.151820000000     0.888640000000     0.0450423  
H415     H      0.059220000000     0.398530000000     0.842070000000     0.104078   
H416     H      0.619270000000     0.409110000000     0.932340000000     0.111075   
H417     H      0.631740000000     0.373770000000     0.841950000000     0.0362227  
H418     H      0.643860000000     0.409010000000     0.873210000000     0.0518449  
H419     H      0.121430000000     0.339820000000     0.893080000000     0.0442725  
H420     H      0.072110000000     0.357920000000     0.889770000000     0.0485532  
H421     H      0.020070000000     0.424520000000     0.724520000000     0.103037   
H422     H      0.604170000000     0.340970000000     0.699170000000     0.10478    
H423     H      0.578640000000     0.433730000000     0.667540000000     0.051579   
H424     H      0.104290000000     0.416270000000     0.703620000000     0.0478175  
H425     H      0.538030000000     0.381420000000     0.659870000000     0.0477947  
H426     H      0.040270000000     0.368820000000     0.706340000000     0.0348251  
H427     H      0.591460000000     0.176830000000     0.723580000000     0.104236   
H428     H      0.138620000000     0.208880000000     0.678430000000     0.107034   
H429     H      0.067960000000     0.125700000000     0.662670000000     0.0474252  
H430     H      0.555600000000     0.173450000000     0.667200000000     0.0393608  
H431     H      0.608900000000     0.156300000000     0.619640000000     0.05147    
H432     H      0.641570000000     0.144950000000     0.656510000000     0.0441673  
H433     H      0.959630000000     0.863120000000     0.535720000000     0.107331   
H434     H      0.989290000000     0.953370000000     0.047810000000     0.110964   
H435     H      0.966930000000     0.870410000000     0.097390000000     0.0336746  
H436     H      0.996550000000     0.908190000000     0.596660000000     0.0512513  
H437     H      0.931220000000     0.925920000000     0.095460000000     0.0360209  
H438     H      0.911620000000     0.904370000000     0.561480000000     0.0458645  
H439     H      0.969170000000     0.664300000000     0.531080000000     0.111081   
H440     H      0.962400000000     0.745960000000     0.047690000000     0.104512   
H441     H      0.921210000000     0.701470000000     0.081050000000     0.0415579  
H442     H      0.944440000000     0.670310000000     0.111770000000     0.0451251  
H443     H      0.009590000000     0.690290000000     0.587200000000     0.0541631  
H444     H      0.981940000000     0.724800000000     0.610610000000     0.0359798  
H445     H      0.705000000000     0.996230000000     0.043810000000     0.109341   
H446     H      0.755150000000     0.878820000000     0.587490000000     0.105979   
H447     H      0.752280000000     0.955070000000     0.600360000000     0.0444125  
H448     H      0.704790000000     0.945380000000     0.081290000000     0.0426203  
H449     H      0.759840000000     0.924150000000     0.541810000000     0.0502164  
H450     H      0.715850000000     0.919570000000     0.017330000000     0.0580549  
H451     H      0.825640000000     0.698850000000     0.062130000000     0.103558   
H452     H      0.765450000000     0.740350000000     0.558810000000     0.107279   
H453     H      0.799710000000     0.728250000000     0.497440000000     0.0367379  
H454     H      0.789580000000     0.683510000000     0.479480000000     0.0458443  
H455     H      0.737260000000     0.673720000000     0.031740000000     0.0563186  
H456     H      0.729690000000     0.707050000000     0.997230000000     0.0478005  
H457     H      0.031170000000     0.518420000000     0.435330000000     0.110582   
H458     H      0.895010000000     0.976600000000     0.411830000000     0.104759   
H459     H      0.981420000000     0.966400000000     0.392240000000     0.047387   
H460     H      0.978820000000     0.976630000000     0.439800000000     0.0454407  
H461     H      0.939300000000     0.515430000000     0.375350000000     0.0448677  
H462     H      0.951090000000     0.542640000000     0.413970000000     0.055059   
H463     H      0.780350000000     0.983280000000     0.415150000000     0.105799   
H464     H      0.761460000000     0.575210000000     0.327200000000     0.105183   
H465     H      0.724450000000     0.538450000000     0.407680000000     0.0583302  
H466     H      0.769930000000     0.564950000000     0.403430000000     0.0522781  
H467     H      0.745290000000     0.998380000000     0.356310000000     0.0492071  
H468     H      0.792890000000     0.021160000000     0.352630000000     0.0363489  
H469     H      0.712760000000     0.584920000000     0.100710000000     0.106588   
H470     H      0.732410000000     0.097890000000     0.218690000000     0.105302   
H471     H      0.771610000000     0.069500000000     0.161400000000     0.048156   
H472     H      0.750760000000     0.615260000000     0.158090000000     0.0448218  
H473     H      0.704490000000     0.042600000000     0.168400000000     0.0465118  
H474     H      0.680090000000     0.584790000000     0.157300000000     0.0476594  
H475     H      0.940270000000     0.539040000000     0.239950000000     0.102965   
H476     H      0.995320000000     0.030640000000     0.119720000000     0.107621   
H477     H      0.936030000000     0.078300000000     0.187970000000     0.043038   
H478     H      0.989360000000     0.074330000000     0.180220000000     0.0566105  
H479     H      0.921530000000     0.519360000000     0.165320000000     0.0437542  
H480     H      0.972250000000     0.503560000000     0.172740000000     0.0411493  
H481     H      0.095260000000     0.733010000000     0.416320000000     0.105549   
H482     H      0.631360000000     0.615280000000     0.432030000000     0.108373   
H483     H      0.646140000000     0.680870000000     0.456120000000     0.0505286  
H484     H      0.093760000000     0.667030000000     0.458370000000     0.0498714  
H485     H      0.645250000000     0.679940000000     0.389390000000     0.0479385  
H486     H      0.090600000000     0.671320000000     0.389200000000     0.04758    
H487     H      0.081560000000     0.898740000000     0.350600000000     0.105297   
H488     H      0.619930000000     0.930660000000     0.469290000000     0.107782   
H489     H      0.639370000000     0.888070000000     0.392890000000     0.0431544  
H490     H      0.639230000000     0.935770000000     0.404550000000     0.0561956  
H491     H      0.074310000000     0.877210000000     0.419780000000     0.05375    
H492     H      0.064720000000     0.925240000000     0.423570000000     0.0460553  
H493     H      0.062990000000     0.918400000000     0.218280000000     0.104941   
H494     H      0.599350000000     0.869980000000     0.175330000000     0.105142   
H495     H      0.585910000000     0.971950000000     0.160340000000     0.0489629  
H496     H      0.123540000000     0.942020000000     0.171630000000     0.0472572  
H497     H      0.571400000000     0.926970000000     0.119900000000     0.051258   
H498     H      0.039350000000     0.910550000000     0.155880000000     0.0378078  
H499     H      0.595530000000     0.688940000000     0.228660000000     0.104543   
H500     H      0.120310000000     0.723610000000     0.176680000000     0.106661   
H501     H      0.055110000000     0.638340000000     0.173460000000     0.0488264  
H502     H      0.546350000000     0.686910000000     0.180150000000     0.0382341  
H503     H      0.588050000000     0.666230000000     0.124570000000     0.0521259  
H504     H      0.627900000000     0.656300000000     0.155600000000     0.0482261  
H505     H      0.960000000000     0.857030000000     0.029290000000     0.106614   
H506     H      0.980810000000     0.954870000000     0.552870000000     0.111553   
H507     H      0.960260000000     0.873640000000     0.606560000000     0.0348965  
H508     H      0.004590000000     0.903120000000     0.085700000000     0.0503855  
H509     H      0.922390000000     0.928700000000     0.602020000000     0.0374074  
H510     H      0.917960000000     0.904100000000     0.054100000000     0.0467589  
H511     H      0.975300000000     0.664270000000     0.036040000000     0.112701   
H512     H      0.963420000000     0.745570000000     0.542230000000     0.105102   
H513     H      0.918970000000     0.705570000000     0.574950000000     0.0412058  
H514     H      0.938160000000     0.673560000000     0.606980000000     0.0464212  
H515     H      0.012960000000     0.693170000000     0.092950000000     0.0545208  
H516     H      0.981720000000     0.726810000000     0.114070000000     0.0350371  
H517     H      0.697420000000     0.002440000000     0.558770000000     0.108044   
H518     H      0.757180000000     0.872490000000     0.073830000000     0.105468   
H519     H      0.758890000000     0.947930000000     0.085750000000     0.043878   
H520     H      0.698050000000     0.952140000000     0.597200000000     0.0441063  
H521     H      0.768440000000     0.917470000000     0.027500000000     0.0495009  
H522     H      0.706150000000     0.923980000000     0.534910000000     0.0579526  
H523     H      0.825530000000     0.702740000000     0.551980000000     0.103248   
H524     H      0.763060000000     0.738600000000     0.065220000000     0.106772   
H525     H      0.803380000000     0.727910000000     0.007670000000     0.0369065  
H526     H      0.796120000000     0.684920000000     0.986160000000     0.04615    
H527     H      0.732860000000     0.676970000000     0.525490000000     0.0568063  
H528     H      0.725480000000     0.712230000000     0.492890000000     0.0454411  
H529     H      0.052480000000     0.511540000000     0.936830000000     0.110333   
H530     H      0.910580000000     0.983650000000     0.905970000000     0.105802   
H531     H      0.995220000000     0.967610000000     0.899500000000     0.046988   
H532     H      0.992630000000     0.983760000000     0.945400000000     0.0476994  
H533     H      0.960110000000     0.520020000000     0.875550000000     0.0495501  
H534     H      0.968490000000     0.546530000000     0.915480000000     0.0554597  
H535     H      0.793910000000     0.989230000000     0.906510000000     0.106416   
H536     H      0.763040000000     0.585270000000     0.826280000000     0.10518    
H537     H      0.733920000000     0.540000000000     0.902910000000     0.056792   
H538     H      0.776760000000     0.570170000000     0.901270000000     0.051566   
H539     H      0.762020000000     0.005900000000     0.848630000000     0.0472122  
H540     H      0.804670000000     0.035820000000     0.846990000000     0.036348   
H541     H      0.705910000000     0.601000000000     0.599910000000     0.107137   
H542     H      0.739690000000     0.095650000000     0.721420000000     0.104612   
H543     H      0.767890000000     0.111700000000     0.659120000000     0.0490715  
H544     H      0.717500000000     0.627810000000     0.657820000000     0.0410119  
H545     H      0.745550000000     0.049270000000     0.668390000000     0.0430587  
H546     H      0.693130000000     0.561110000000     0.658730000000     0.0521433  
H547     H      0.953200000000     0.569710000000     0.740800000000     0.102488   
H548     H      0.989810000000     0.038280000000     0.620110000000     0.108125   
H549     H      0.957120000000     0.101180000000     0.683310000000     0.0398359  
H550     H      0.004870000000     0.080220000000     0.673470000000     0.0537559  
H551     H      0.919790000000     0.545340000000     0.672340000000     0.0467808  
H552     H      0.964280000000     0.517650000000     0.677140000000     0.0440594  
H553     H      0.078200000000     0.714080000000     0.913610000000     0.105216   
H554     H      0.627030000000     0.600420000000     0.929220000000     0.108024   
H555     H      0.635640000000     0.666860000000     0.953190000000     0.0518845  
H556     H      0.085020000000     0.650910000000     0.956960000000     0.0479189  
H557     H      0.629980000000     0.666490000000     0.885650000000     0.048895   
H558     H      0.078560000000     0.651670000000     0.888770000000     0.0448869  
H559     H      0.059460000000     0.898870000000     0.842100000000     0.104113   
H560     H      0.619370000000     0.909230000000     0.932180000000     0.111244   
H561     H      0.631840000000     0.873850000000     0.841750000000     0.0362813  
H562     H      0.644220000000     0.908970000000     0.873060000000     0.0519879  
H563     H      0.121760000000     0.839940000000     0.892980000000     0.0442253  
H564     H      0.072390000000     0.857920000000     0.889530000000     0.0485329  
H565     H      0.020340000000     0.925040000000     0.724760000000     0.1031     
H566     H      0.604210000000     0.841110000000     0.699630000000     0.10471    
H567     H      0.578950000000     0.933890000000     0.667810000000     0.0517267  
H568     H      0.104570000000     0.916500000000     0.703990000000     0.0479143  
H569     H      0.538100000000     0.881660000000     0.660420000000     0.0477987  
H570     H      0.040530000000     0.869180000000     0.706920000000     0.0348124  
H571     H      0.590650000000     0.676470000000     0.723150000000     0.104357   
H572     H      0.138310000000     0.708610000000     0.678470000000     0.107079   
H573     H      0.068010000000     0.625250000000     0.662040000000     0.0474756  
H574     H      0.555360000000     0.672940000000     0.666470000000     0.0393804  
H575     H      0.609270000000     0.656070000000     0.619410000000     0.0514787  
H576     H      0.641570000000     0.644760000000     0.656560000000     0.0441678  
N1       N      0.482520000000     0.371390000000     0.552450000000    -0.209233   
N2       N      0.449890000000     0.450310000000     0.554330000000    -0.212706   
N3       N      0.454060000000     0.159270000000     0.056690000000    -0.21338    
N4       N      0.488760000000     0.235250000000     0.554430000000    -0.211781   
N5       N      0.225210000000     0.489360000000     0.560560000000    -0.216219   
N6       N      0.232410000000     0.382540000000     0.059530000000    -0.213193   
N7       N      0.315740000000     0.182560000000     0.041190000000    -0.213279   
N8       N      0.239390000000     0.228390000000     0.050060000000    -0.210967   
N9       N      0.518610000000     0.510590000000     0.410850000000    -0.214519   
N10      N      0.409350000000     0.499800000000     0.423050000000    -0.215      
N11      N      0.277280000000     0.511250000000     0.423280000000    -0.213587   
N12      N      0.242840000000     0.053350000000     0.337050000000    -0.213523   
N13      N      0.241500000000     0.083030000000     0.112470000000    -0.214858   
N14      N      0.207760000000     0.083500000000     0.208830000000    -0.213133   
N15      N      0.466360000000     0.546420000000     0.226350000000    -0.214126   
N16      N      0.465490000000     0.036230000000     0.127350000000    -0.216033   
N17      N      0.604730000000     0.220680000000     0.440750000000    -0.21477    
N18      N      0.127710000000     0.126720000000     0.406950000000    -0.21522    
N19      N      0.599400000000     0.420320000000     0.361280000000    -0.211319   
N20      N      0.606570000000     0.405930000000     0.461250000000    -0.211578   
N21      N      0.575720000000     0.443180000000     0.209170000000    -0.212748   
N22      N      0.093590000000     0.381200000000     0.149810000000    -0.210768   
N23      N      0.088810000000     0.163540000000     0.216930000000    -0.210598   
N24      N      0.113570000000     0.212040000000     0.152140000000    -0.208665   
N25      N      0.485110000000     0.367810000000     0.043380000000    -0.208662   
N26      N      0.458270000000     0.449230000000     0.049350000000    -0.213153   
N27      N      0.447960000000     0.160420000000     0.551520000000    -0.213004   
N28      N      0.488720000000     0.234840000000     0.058650000000    -0.210427   
N29      N      0.232650000000     0.483540000000     0.047630000000    -0.215512   
N30      N      0.228310000000     0.388800000000     0.575570000000    -0.213492   
N31      N      0.312670000000     0.184990000000     0.532970000000    -0.212794   
N32      N      0.239900000000     0.230610000000     0.545300000000    -0.210928   
N33      N      0.535450000000     0.509500000000     0.913450000000    -0.214159   
N34      N      0.423840000000     0.505110000000     0.920170000000    -0.215054   
N35      N      0.288970000000     0.515390000000     0.917400000000    -0.213751   
N36      N      0.249710000000     0.060460000000     0.833960000000    -0.214888   
N37      N      0.234160000000     0.098780000000     0.611760000000    -0.21513    
N38      N      0.217710000000     0.079460000000     0.709190000000    -0.21411    
N39      N      0.478260000000     0.566590000000     0.724440000000    -0.214516   
N40      N      0.460930000000     0.045840000000     0.628200000000    -0.215135   
N41      N      0.591400000000     0.204620000000     0.938240000000    -0.21409    
N42      N      0.122930000000     0.112300000000     0.904220000000    -0.214748   
N43      N      0.585970000000     0.412420000000     0.847460000000    -0.211235   
N44      N      0.608750000000     0.382350000000     0.930140000000    -0.210533   
N45      N      0.547510000000     0.436730000000     0.717410000000    -0.215217   
N46      N      0.090870000000     0.354080000000     0.676520000000    -0.213792   
N47      N      0.090600000000     0.151640000000     0.710080000000    -0.211507   
N48      N      0.127740000000     0.201080000000     0.653080000000    -0.20919    
N49      N      0.482390000000     0.871520000000     0.553450000000    -0.209191   
N50      N      0.449900000000     0.950440000000     0.555440000000    -0.212675   
N51      N      0.453930000000     0.659260000000     0.056420000000    -0.213311   
N52      N      0.488790000000     0.735170000000     0.555050000000    -0.211762   
N53      N      0.225110000000     0.989290000000     0.560960000000    -0.215127   
N54      N      0.232430000000     0.882470000000     0.059190000000    -0.213167   
N55      N      0.315670000000     0.682620000000     0.040990000000    -0.213246   
N56      N      0.239300000000     0.728420000000     0.049790000000    -0.210936   
N57      N      0.518730000000     0.010190000000     0.410920000000    -0.215069   
N58      N      0.409850000000     0.998730000000     0.424020000000    -0.213939   
N59      N      0.277660000000     0.010630000000     0.423670000000    -0.213913   
N60      N      0.242280000000     0.555300000000     0.337560000000    -0.213656   
N61      N      0.241400000000     0.583440000000     0.112560000000    -0.214828   
N62      N      0.207470000000     0.584110000000     0.208870000000    -0.213151   
N63      N      0.466610000000     0.046150000000     0.226790000000    -0.214141   
N64      N      0.465470000000     0.536180000000     0.126910000000    -0.216019   
N65      N      0.603870000000     0.721150000000     0.440840000000    -0.214778   
N66      N      0.126310000000     0.627170000000     0.406760000000    -0.215209   
N67      N      0.599490000000     0.919910000000     0.361660000000    -0.211197   
N68      N      0.606330000000     0.906120000000     0.461740000000    -0.211546   
N69      N      0.576150000000     0.943060000000     0.209170000000    -0.212911   
N70      N      0.093740000000     0.881240000000     0.149670000000    -0.210832   
N71      N      0.088010000000     0.663630000000     0.216270000000    -0.210638   
N72      N      0.113490000000     0.711920000000     0.151660000000    -0.208686   
N73      N      0.485030000000     0.867790000000     0.043650000000    -0.20867    
N74      N      0.458450000000     0.949200000000     0.049950000000    -0.213267   
N75      N      0.448230000000     0.660250000000     0.551810000000    -0.213094   
N76      N      0.488680000000     0.734820000000     0.058400000000    -0.210376   
N77      N      0.232860000000     0.983470000000     0.047290000000    -0.214834   
N78      N      0.228290000000     0.888750000000     0.576140000000    -0.213588   
N79      N      0.312770000000     0.685090000000     0.533450000000    -0.212778   
N80      N      0.239910000000     0.730720000000     0.545800000000    -0.210995   
N81      N      0.536460000000     0.009740000000     0.913690000000    -0.214653   
N82      N      0.425000000000     0.004530000000     0.920760000000    -0.215399   
N83      N      0.289720000000     0.015410000000     0.917300000000    -0.213898   
N84      N      0.248590000000     0.561250000000     0.834800000000    -0.214911   
N85      N      0.234400000000     0.598440000000     0.611850000000    -0.215029   
N86      N      0.217020000000     0.579410000000     0.709220000000    -0.214103   
N87      N      0.478940000000     0.067280000000     0.724820000000    -0.214473   
N88      N      0.461010000000     0.545120000000     0.627690000000    -0.215144   
N89      N      0.590680000000     0.704840000000     0.937910000000    -0.214007   
N90      N      0.121490000000     0.612290000000     0.904010000000    -0.214712   
N91      N      0.586270000000     0.912660000000     0.847460000000    -0.211189   
N92      N      0.608830000000     0.882480000000     0.929970000000    -0.210551   
N93      N      0.547820000000     0.937150000000     0.717670000000    -0.21512    
N94      N      0.090970000000     0.854260000000     0.676970000000    -0.213755   
N95      N      0.089990000000     0.651280000000     0.709670000000    -0.211569   
N96      N      0.127590000000     0.700850000000     0.653060000000    -0.209229   
N97      N      0.982410000000     0.371300000000     0.552530000000    -0.209111   
N98      N      0.949860000000     0.450230000000     0.554460000000    -0.212675   
N99      N      0.954090000000     0.159000000000     0.056420000000    -0.213326   
N100     N      0.988840000000     0.235080000000     0.554510000000    -0.211721   
N101     N      0.725200000000     0.489180000000     0.560590000000    -0.216164   
N102     N      0.732710000000     0.382410000000     0.059310000000    -0.21323    
N103     N      0.815590000000     0.182360000000     0.041100000000    -0.21319    
N104     N      0.739290000000     0.228290000000     0.050110000000    -0.210932   
N105     N      0.018600000000     0.510110000000     0.410770000000    -0.214659   
N106     N      0.909330000000     0.499570000000     0.423100000000    -0.215031   
N107     N      0.777370000000     0.510990000000     0.423270000000    -0.213582   
N108     N      0.743110000000     0.052920000000     0.336900000000    -0.213461   
N109     N      0.741490000000     0.082510000000     0.112190000000    -0.214887   
N110     N      0.707710000000     0.083460000000     0.208550000000    -0.213077   
N111     N      0.966400000000     0.546370000000     0.226000000000    -0.214084   
N112     N      0.965500000000     0.036000000000     0.127010000000    -0.215943   
N113     N      0.104020000000     0.220420000000     0.440820000000    -0.214745   
N114     N      0.628860000000     0.127070000000     0.406910000000    -0.215249   
N115     N      0.099240000000     0.420000000000     0.360980000000    -0.211355   
N116     N      0.106630000000     0.405700000000     0.460950000000    -0.211562   
N117     N      0.074850000000     0.442970000000     0.208860000000    -0.212672   
N118     N      0.593820000000     0.381230000000     0.149980000000    -0.210905   
N119     N      0.589020000000     0.163950000000     0.217290000000    -0.210612   
N120     N      0.613510000000     0.212360000000     0.152360000000    -0.208694   
N121     N      0.984930000000     0.367480000000     0.042960000000    -0.208693   
N122     N      0.958090000000     0.448930000000     0.048930000000    -0.213154   
N123     N      0.948040000000     0.160240000000     0.551550000000    -0.213061   
N124     N      0.988790000000     0.234530000000     0.058420000000    -0.210381   
N125     N      0.732620000000     0.483390000000     0.047210000000    -0.215508   
N126     N      0.728450000000     0.388620000000     0.575550000000    -0.213489   
N127     N      0.812570000000     0.184830000000     0.532690000000    -0.212835   
N128     N      0.739790000000     0.230350000000     0.545180000000    -0.21106    
N129     N      0.035520000000     0.509040000000     0.913160000000    -0.214188   
N130     N      0.923900000000     0.504950000000     0.919790000000    -0.21517    
N131     N      0.788980000000     0.515500000000     0.916940000000    -0.213722   
N132     N      0.749520000000     0.060650000000     0.833640000000    -0.214805   
N133     N      0.734090000000     0.098790000000     0.611650000000    -0.215068   
N134     N      0.717200000000     0.080010000000     0.709130000000    -0.214155   
N135     N      0.978590000000     0.566540000000     0.724430000000    -0.214497   
N136     N      0.960870000000     0.045890000000     0.628240000000    -0.215059   
N137     N      0.091610000000     0.204400000000     0.938050000000    -0.21399    
N138     N      0.622970000000     0.112630000000     0.904350000000    -0.21484    
N139     N      0.086340000000     0.412020000000     0.847190000000    -0.211218   
N140     N      0.108900000000     0.382060000000     0.929950000000    -0.210515   
N141     N      0.046880000000     0.437040000000     0.716460000000    -0.215119   
N142     N      0.591740000000     0.354210000000     0.676780000000    -0.213794   
N143     N      0.590110000000     0.151830000000     0.710080000000    -0.21157    
N144     N      0.627620000000     0.200980000000     0.653090000000    -0.209238   
N145     N      0.982290000000     0.871430000000     0.553520000000    -0.209052   
N146     N      0.949880000000     0.950350000000     0.555560000000    -0.212723   
N147     N      0.953970000000     0.659000000000     0.056150000000    -0.213336   
N148     N      0.988880000000     0.735010000000     0.555130000000    -0.211656   
N149     N      0.725100000000     0.989090000000     0.560990000000    -0.215093   
N150     N      0.732730000000     0.882330000000     0.058980000000    -0.213238   
N151     N      0.815520000000     0.682440000000     0.040910000000    -0.213233   
N152     N      0.739200000000     0.728330000000     0.049860000000    -0.211014   
N153     N      0.018730000000     0.009680000000     0.410840000000    -0.215203   
N154     N      0.909840000000     0.998480000000     0.424080000000    -0.213856   
N155     N      0.777770000000     0.010360000000     0.423650000000    -0.21384    
N156     N      0.742560000000     0.554900000000     0.337400000000    -0.213698   
N157     N      0.741390000000     0.582940000000     0.112290000000    -0.214821   
N158     N      0.707420000000     0.584080000000     0.208600000000    -0.213021   
N159     N      0.966640000000     0.046100000000     0.226440000000    -0.21407    
N160     N      0.965480000000     0.535960000000     0.126570000000    -0.215989   
N161     N      0.103170000000     0.720890000000     0.440900000000    -0.214751   
N162     N      0.627430000000     0.627520000000     0.406730000000    -0.215191   
N163     N      0.099350000000     0.919580000000     0.361350000000    -0.211242   
N164     N      0.106410000000     0.905890000000     0.461430000000    -0.211551   
N165     N      0.075280000000     0.942850000000     0.208840000000    -0.212697   
N166     N      0.593960000000     0.881280000000     0.149850000000    -0.210873   
N167     N      0.588200000000     0.664040000000     0.216630000000    -0.210649   
N168     N      0.613420000000     0.712230000000     0.151880000000    -0.208671   
N169     N      0.984840000000     0.867450000000     0.043220000000    -0.208611   
N170     N      0.958260000000     0.948880000000     0.049530000000    -0.213176   
N171     N      0.948320000000     0.660090000000     0.551830000000    -0.21313    
N172     N      0.988760000000     0.734530000000     0.058180000000    -0.210348   
N173     N      0.732830000000     0.983310000000     0.046860000000    -0.214859   
N174     N      0.728430000000     0.888550000000     0.576140000000    -0.213597   
N175     N      0.812660000000     0.684940000000     0.533200000000    -0.212839   
N176     N      0.739790000000     0.730460000000     0.545710000000    -0.210963   
N177     N      0.036530000000     0.009250000000     0.913400000000    -0.214745   
N178     N      0.925050000000     0.004350000000     0.920390000000    -0.215384   
N179     N      0.789760000000     0.015500000000     0.916830000000    -0.213943   
N180     N      0.748370000000     0.561470000000     0.834490000000    -0.214939   
N181     N      0.734340000000     0.598450000000     0.611760000000    -0.214977   
N182     N      0.716500000000     0.579980000000     0.709180000000    -0.214132   
N183     N      0.979270000000     0.067210000000     0.724820000000    -0.214436   
N184     N      0.960970000000     0.545180000000     0.627720000000    -0.215086   
N185     N      0.090910000000     0.704620000000     0.937710000000    -0.214043   
N186     N      0.621490000000     0.612600000000     0.904150000000    -0.214886   
N187     N      0.086660000000     0.912250000000     0.847170000000    -0.211214   
N188     N      0.108990000000     0.882180000000     0.929780000000    -0.210582   
N189     N      0.047210000000     0.937460000000     0.716710000000    -0.215019   
N190     N      0.591810000000     0.854400000000     0.677240000000    -0.213642   
N191     N      0.589470000000     0.651470000000     0.709670000000    -0.211534   
N192     N      0.627430000000     0.700750000000     0.653090000000    -0.209197   
O1       O      0.145580000000     0.059720000000     0.219880000000    -0.373423   
O2       O      0.619770000000     0.479550000000     0.357390000000    -0.370245   
O3       O      0.189250000000     0.084050000000     0.314500000000    -0.359165   
O4       O      0.557850000000     0.470050000000     0.261900000000    -0.371912   
O5       O      0.178860000000     0.532530000000     0.343180000000    -0.38324    
O6       O      0.091300000000     0.502010000000     0.220520000000    -0.38007    
O7       O      0.568920000000     0.460090000000     0.323070000000    -0.359641   
O8       O      0.175440000000     0.094920000000     0.261140000000    -0.360091   
O9       O      0.534990000000     0.050580000000     0.226270000000    -0.367479   
O10      O      0.630350000000     0.071020000000     0.381870000000    -0.364029   
O11      O      0.111940000000     0.134830000000     0.267130000000    -0.372773   
O12      O      0.525320000000     0.506570000000     0.349560000000    -0.369247   
O13      O      0.576360000000     0.526850000000     0.383210000000    -0.36023    
O14      O      0.087230000000     0.101350000000     0.221950000000    -0.358712   
O15      O      0.503800000000     0.525800000000     0.273370000000    -0.379144   
O16      O      0.124100000000     0.119370000000     0.346100000000    -0.382974   
O17      O      0.088070000000     0.554230000000     0.300260000000    -0.613849   
O18      O      0.111350000000     0.218890000000     0.090810000000    -0.35993    
O19      O      0.548720000000     0.367520000000     0.568560000000    -0.36744    
O20      O      0.124530000000     0.332390000000     0.124050000000    -0.371588   
O21      O      0.527500000000     0.274990000000     0.523000000000    -0.367854   
O22      O      0.599230000000     0.376020000000     0.088960000000    -0.363851   
O23      O      0.557150000000     0.233010000000     0.058000000000    -0.375818   
O24      O      0.525930000000     0.335460000000     0.521660000000    -0.358847   
O25      O      0.132590000000     0.265040000000     0.124990000000    -0.36554    
O26      O      0.110430000000     0.225430000000     0.501550000000    -0.372341   
O27      O      0.161530000000     0.379830000000     0.564990000000    -0.366237   
O28      O      0.198150000000     0.269240000000     0.077250000000    -0.360613   
O29      O      0.586400000000     0.349020000000     0.478480000000    -0.36564    
O30      O      0.612480000000     0.386860000000     0.519400000000    -0.36059    
O31      O      0.172210000000     0.229630000000     0.037960000000    -0.370463   
O32      O      0.588540000000     0.273070000000     0.469690000000    -0.375379   
O33      O      0.195180000000     0.335140000000     0.079980000000    -0.362416   
O34      O      0.625340000000     0.299380000000     0.032580000000    -0.582277   
O35      O      0.452910000000     0.050540000000     0.069050000000    -0.370639   
O36      O      0.254410000000     0.536210000000     0.530630000000    -0.368255   
O37      O      0.309190000000     0.078490000000     0.103510000000    -0.391947   
O38      O      0.386290000000     0.471530000000     0.544170000000    -0.393398   
O39      O      0.267190000000     0.581710000000     0.056130000000    -0.367537   
O40      O      0.448520000000     0.506040000000     0.027250000000    -0.368823   
O41      O      0.292310000000     0.488800000000     0.547600000000    -0.398189   
O42      O      0.403310000000     0.056080000000     0.109620000000    -0.393681   
O43      O      0.415600000000     0.036590000000     0.472590000000    -0.391753   
O44      O      0.303300000000     0.126410000000     0.514390000000    -0.391729   
O45      O      0.405450000000     0.121450000000     0.078410000000    -0.368697   
O46      O      0.308770000000     0.495330000000     0.475370000000    -0.364307   
O47      O      0.288470000000     0.553020000000     0.467720000000    -0.393767   
O48      O      0.439290000000     0.106250000000     0.028260000000    -0.392372   
O49      O      0.371680000000     0.490720000000     0.473320000000    -0.367747   
O50      O      0.340910000000     0.133280000000     0.070360000000    -0.367799   
O51      O      0.360540000000     0.553000000000     0.032210000000    -0.687677   
O52      O      0.156900000000     0.051000000000     0.715680000000    -0.38091    
O53      O      0.622050000000     0.465190000000     0.842260000000    -0.384452   
O54      O      0.191200000000     0.083970000000     0.812990000000    -0.359863   
O55      O      0.536460000000     0.478240000000     0.761250000000    -0.37323    
O56      O      0.190450000000     0.528440000000     0.837600000000    -0.388633   
O57      O      0.087580000000     0.486900000000     0.722390000000    -0.388442   
O58      O      0.558590000000     0.462990000000     0.822080000000    -0.361932   
O59      O      0.178940000000     0.089640000000     0.758130000000    -0.363014   
O60      O      0.544660000000     0.049860000000     0.720100000000    -0.372366   
O61      O      0.636040000000     0.058620000000     0.877210000000    -0.363702   
O62      O      0.109110000000     0.123820000000     0.762190000000    -0.388188   
O63      O      0.533850000000     0.513600000000     0.851960000000    -0.380412   
O64      O      0.592780000000     0.515570000000     0.881280000000    -0.361727   
O65      O      0.097460000000     0.089560000000     0.713250000000    -0.360201   
O66      O      0.512040000000     0.543880000000     0.772790000000    -0.392922   
O67      O      0.120340000000     0.106560000000     0.843100000000    -0.397121   
O68      O      0.107910000000     0.535660000000     0.790630000000    -0.668103   
O69      O      0.115460000000     0.217210000000     0.594540000000    -0.366653   
O70      O      0.553300000000     0.367390000000     0.050310000000    -0.366694   
O71      O      0.131160000000     0.320180000000     0.640660000000    -0.375834   
O72      O      0.524850000000     0.271380000000     0.021450000000    -0.363727   
O73      O      0.591420000000     0.361730000000     0.615680000000    -0.374252   
O74      O      0.556680000000     0.236550000000     0.561530000000    -0.38438    
O75      O      0.524370000000     0.328800000000     0.011850000000    -0.360425   
O76      O      0.144490000000     0.257250000000     0.631540000000    -0.362977   
O77      O      0.107360000000     0.216240000000     0.996670000000    -0.372289   
O78      O      0.166740000000     0.375730000000     0.043080000000    -0.369464   
O79      O      0.202930000000     0.269690000000     0.578950000000    -0.365374   
O80      O      0.588100000000     0.330850000000     0.959400000000    -0.366687   
O81      O      0.612230000000     0.377520000000     0.991300000000    -0.368462   
O82      O      0.171570000000     0.232590000000     0.540440000000    -0.365601   
O83      O      0.577930000000     0.259410000000     0.963260000000    -0.372123   
O84      O      0.197310000000     0.336810000000     0.592930000000    -0.367119   
O85      O      0.626080000000     0.303890000000     0.545540000000    -0.585986   
O86      O      0.445050000000     0.052880000000     0.569240000000    -0.368953   
O87      O      0.262450000000     0.533270000000     0.023340000000    -0.365018   
O88      O      0.301430000000     0.088110000000     0.604070000000    -0.390128   
O89      O      0.395030000000     0.470870000000     0.038840000000    -0.395798   
O90      O      0.260180000000     0.589210000000     0.556220000000    -0.366406   
O91      O      0.439510000000     0.506130000000     0.530050000000    -0.367305   
O92      O      0.300560000000     0.485320000000     0.038360000000    -0.394923   
O93      O      0.397900000000     0.064210000000     0.611030000000    -0.390711   
O94      O      0.427970000000     0.039620000000     0.971340000000    -0.391858   
O95      O      0.309590000000     0.125600000000     0.017260000000    -0.393101   
O96      O      0.399140000000     0.124750000000     0.576070000000    -0.365741   
O97      O      0.320290000000     0.497300000000     0.968720000000    -0.363022   
O98      O      0.297590000000     0.554630000000     0.964570000000    -0.390796   
O99      O      0.431180000000     0.106200000000     0.526060000000    -0.390004   
O100     O      0.382970000000     0.493940000000     0.967990000000    -0.366134   
O101     O      0.336320000000     0.137680000000     0.566020000000    -0.366953   
O102     O      0.352090000000     0.553700000000     0.535090000000    -0.688128   
O103     O      0.145420000000     0.560020000000     0.219830000000    -0.373708   
O104     O      0.619900000000     0.979140000000     0.357870000000    -0.368994   
O105     O      0.188470000000     0.585320000000     0.314580000000    -0.359355   
O106     O      0.558390000000     0.969740000000     0.262010000000    -0.371702   
O107     O      0.179140000000     0.031390000000     0.343190000000    -0.383213   
O108     O      0.091570000000     0.001900000000     0.220620000000    -0.380752   
O109     O      0.569290000000     0.959680000000     0.323270000000    -0.358976   
O110     O      0.174790000000     0.595670000000     0.261000000000    -0.360232   
O111     O      0.534760000000     0.550710000000     0.225900000000    -0.367395   
O112     O      0.629510000000     0.571530000000     0.381620000000    -0.363784   
O113     O      0.110940000000     0.635230000000     0.266700000000    -0.373287   
O114     O      0.525650000000     0.006130000000     0.349660000000    -0.369124   
O115     O      0.576520000000     0.026580000000     0.383420000000    -0.36048    
O116     O      0.086900000000     0.601450000000     0.221450000000    -0.358864   
O117     O      0.504180000000     0.025370000000     0.273650000000    -0.378954   
O118     O      0.122930000000     0.619890000000     0.345890000000    -0.382886   
O119     O      0.088440000000     0.053930000000     0.300570000000    -0.612589   
O120     O      0.111320000000     0.718890000000     0.090350000000    -0.360021   
O121     O      0.548690000000     0.867690000000     0.569260000000    -0.367213   
O122     O      0.124550000000     0.832410000000     0.123820000000    -0.371634   
O123     O      0.527280000000     0.775160000000     0.523680000000    -0.367747   
O124     O      0.599280000000     0.876130000000     0.088820000000    -0.363748   
O125     O      0.557110000000     0.733030000000     0.057630000000    -0.375651   
O126     O      0.525650000000     0.835630000000     0.522460000000    -0.358934   
O127     O      0.132460000000     0.764990000000     0.124630000000    -0.365782   
O128     O      0.110190000000     0.725760000000     0.501580000000    -0.372615   
O129     O      0.161520000000     0.879880000000     0.565450000000    -0.366232   
O130     O      0.198050000000     0.769250000000     0.077000000000    -0.360523   
O131     O      0.586080000000     0.849230000000     0.478990000000    -0.365527   
O132     O      0.612350000000     0.887020000000     0.519860000000    -0.360863   
O133     O      0.172150000000     0.729740000000     0.037590000000    -0.370618   
O134     O      0.587840000000     0.773430000000     0.470040000000    -0.375237   
O135     O      0.195140000000     0.835120000000     0.079670000000    -0.362293   
O136     O      0.625240000000     0.799520000000     0.032310000000    -0.582278   
O137     O      0.452690000000     0.550500000000     0.068650000000    -0.370586   
O138     O      0.254370000000     0.036050000000     0.530920000000    -0.367906   
O139     O      0.309070000000     0.578730000000     0.103540000000    -0.391692   
O140     O      0.386290000000     0.971530000000     0.545070000000    -0.392899   
O141     O      0.267390000000     0.081540000000     0.056060000000    -0.367693   
O142     O      0.448840000000     0.005990000000     0.027780000000    -0.369412   
O143     O      0.292250000000     0.988740000000     0.548190000000    -0.396988   
O144     O      0.403250000000     0.556100000000     0.109370000000    -0.393737   
O145     O      0.415450000000     0.537150000000     0.471970000000    -0.391996   
O146     O      0.303380000000     0.626620000000     0.514500000000    -0.391768   
O147     O      0.405340000000     0.621460000000     0.078220000000    -0.368654   
O148     O      0.309000000000     0.994970000000     0.475910000000    -0.363096   
O149     O      0.288530000000     0.052580000000     0.468000000000    -0.39355    
O150     O      0.439010000000     0.606270000000     0.027970000000    -0.392279   
O151     O      0.371830000000     0.990180000000     0.474160000000    -0.366344   
O152     O      0.340810000000     0.633360000000     0.070210000000    -0.367813   
O153     O      0.360860000000     0.053030000000     0.032250000000    -0.687525   
O154     O      0.156310000000     0.550780000000     0.715630000000    -0.380771   
O155     O      0.622580000000     0.965300000000     0.842250000000    -0.383888   
O156     O      0.190130000000     0.584210000000     0.813140000000    -0.35979    
O157     O      0.536920000000     0.978750000000     0.761460000000    -0.372739   
O158     O      0.191310000000     0.028080000000     0.837170000000    -0.388818   
O159     O      0.088080000000     0.987220000000     0.722590000000    -0.387678   
O160     O      0.559060000000     0.963370000000     0.822220000000    -0.361493   
O161     O      0.178110000000     0.589510000000     0.758090000000    -0.363086   
O162     O      0.544050000000     0.549390000000     0.719840000000    -0.372377   
O163     O      0.634860000000     0.558600000000     0.877140000000    -0.363581   
O164     O      0.108200000000     0.623550000000     0.761910000000    -0.388058   
O165     O      0.534680000000     0.013970000000     0.852220000000    -0.380776   
O166     O      0.593710000000     0.015770000000     0.881400000000    -0.361987   
O167     O      0.096890000000     0.589200000000     0.712970000000    -0.36018    
O168     O      0.512750000000     0.044450000000     0.773100000000    -0.393014   
O169     O      0.119120000000     0.606440000000     0.842890000000    -0.39679    
O170     O      0.108590000000     0.035940000000     0.790780000000    -0.668185   
O171     O      0.115500000000     0.717130000000     0.594520000000    -0.36642    
O172     O      0.553250000000     0.867440000000     0.050350000000    -0.366726   
O173     O      0.131070000000     0.820230000000     0.641060000000    -0.37573    
O174     O      0.524720000000     0.771510000000     0.021270000000    -0.363562   
O175     O      0.591450000000     0.861950000000     0.616150000000    -0.373956   
O176     O      0.556750000000     0.736480000000     0.561790000000    -0.384209   
O177     O      0.524220000000     0.828940000000     0.011860000000    -0.360512   
O178     O      0.144200000000     0.757140000000     0.631750000000    -0.363022   
O179     O      0.107020000000     0.716430000000     0.996260000000    -0.372358   
O180     O      0.166720000000     0.875780000000     0.042830000000    -0.369413   
O181     O      0.202790000000     0.769710000000     0.579430000000    -0.36514    
O182     O      0.588070000000     0.831020000000     0.959230000000    -0.366877   
O183     O      0.612190000000     0.877680000000     0.991140000000    -0.368584   
O184     O      0.171610000000     0.732770000000     0.540650000000    -0.365779   
O185     O      0.577470000000     0.759660000000     0.963000000000    -0.371845   
O186     O      0.197160000000     0.836800000000     0.593430000000    -0.366902   
O187     O      0.625940000000     0.804050000000     0.545900000000    -0.585824   
O188     O      0.445140000000     0.552590000000     0.568780000000    -0.36893    
O189     O      0.262750000000     0.033220000000     0.023120000000    -0.364512   
O190     O      0.301650000000     0.587810000000     0.603980000000    -0.390064   
O191     O      0.395270000000     0.970860000000     0.039160000000    -0.3953     
O192     O      0.260060000000     0.089260000000     0.556230000000    -0.366522   
O193     O      0.439490000000     0.006130000000     0.530880000000    -0.36792    
O194     O      0.300820000000     0.985280000000     0.038270000000    -0.393558   
O195     O      0.398020000000     0.563710000000     0.610660000000    -0.390713   
O196     O      0.427190000000     0.539950000000     0.970900000000    -0.392205   
O197     O      0.309380000000     0.625630000000     0.017160000000    -0.39312    
O198     O      0.399350000000     0.624500000000     0.576110000000    -0.36589    
O199     O      0.320930000000     0.997340000000     0.968670000000    -0.361937   
O200     O      0.298040000000     0.054610000000     0.964530000000    -0.390544   
O201     O      0.431360000000     0.606230000000     0.525980000000    -0.389924   
O202     O      0.383580000000     0.993760000000     0.968280000000    -0.364849   
O203     O      0.336450000000     0.637560000000     0.566170000000    -0.367036   
O204     O      0.352010000000     0.053620000000     0.535490000000    -0.688082   
O205     O      0.645440000000     0.059970000000     0.219780000000    -0.373067   
O206     O      0.119670000000     0.479210000000     0.357070000000    -0.370585   
O207     O      0.689680000000     0.083830000000     0.314330000000    -0.359187   
O208     O      0.057150000000     0.469890000000     0.261620000000    -0.371847   
O209     O      0.679000000000     0.532530000000     0.343280000000    -0.383097   
O210     O      0.591460000000     0.502410000000     0.220640000000    -0.380062   
O211     O      0.068670000000     0.459840000000     0.322890000000    -0.360022   
O212     O      0.675730000000     0.094890000000     0.261030000000    -0.359819   
O213     O      0.035050000000     0.050300000000     0.226020000000    -0.367491   
O214     O      0.129700000000     0.070730000000     0.381810000000    -0.364044   
O215     O      0.612420000000     0.135070000000     0.267290000000    -0.372628   
O216     O      0.025170000000     0.506290000000     0.349460000000    -0.369389   
O217     O      0.076320000000     0.526370000000     0.383100000000    -0.359966   
O218     O      0.587190000000     0.101760000000     0.222230000000    -0.358914   
O219     O      0.003660000000     0.525730000000     0.273120000000    -0.379353   
O220     O      0.624910000000     0.119620000000     0.346090000000    -0.382685   
O221     O      0.588180000000     0.554590000000     0.300440000000    -0.612871   
O222     O      0.611210000000     0.219140000000     0.091030000000    -0.359886   
O223     O      0.048660000000     0.367580000000     0.568490000000    -0.366867   
O224     O      0.624580000000     0.332380000000     0.124160000000    -0.371708   
O225     O      0.027460000000     0.274930000000     0.523090000000    -0.367748   
O226     O      0.098880000000     0.375830000000     0.088790000000    -0.363762   
O227     O      0.057220000000     0.232770000000     0.057800000000    -0.375883   
O228     O      0.025810000000     0.335390000000     0.521700000000    -0.358703   
O229     O      0.632720000000     0.265250000000     0.125130000000    -0.365372   
O230     O      0.610640000000     0.225520000000     0.501530000000    -0.37242    
O231     O      0.661640000000     0.379710000000     0.565100000000    -0.366158   
O232     O      0.698200000000     0.269260000000     0.077310000000    -0.360596   
O233     O      0.086330000000     0.348880000000     0.478360000000    -0.365661   
O234     O      0.112530000000     0.386790000000     0.519150000000    -0.360806   
O235     O      0.672100000000     0.229670000000     0.038090000000    -0.370453   
O236     O      0.088120000000     0.272910000000     0.469720000000    -0.375169   
O237     O      0.695410000000     0.335120000000     0.079900000000    -0.36262    
O238     O      0.125310000000     0.299230000000     0.032470000000    -0.582273   
O239     O      0.952900000000     0.050270000000     0.068700000000    -0.370662   
O240     O      0.754380000000     0.536040000000     0.530640000000    -0.368311   
O241     O      0.809180000000     0.078110000000     0.103190000000    -0.391903   
O242     O      0.886270000000     0.471420000000     0.544270000000    -0.393407   
O243     O      0.767160000000     0.581440000000     0.055840000000    -0.367628   
O244     O      0.948450000000     0.505780000000     0.026910000000    -0.368881   
O245     O      0.792310000000     0.488670000000     0.547650000000    -0.398333   
O246     O      0.903320000000     0.055860000000     0.109280000000    -0.393623   
O247     O      0.915580000000     0.036400000000     0.472620000000    -0.391622   
O248     O      0.803190000000     0.126210000000     0.514240000000    -0.391764   
O249     O      0.905440000000     0.121190000000     0.078100000000    -0.368672   
O250     O      0.808780000000     0.495130000000     0.475420000000    -0.364227   
O251     O      0.788490000000     0.552810000000     0.467690000000    -0.393802   
O252     O      0.939290000000     0.106010000000     0.027940000000    -0.392322   
O253     O      0.871670000000     0.490540000000     0.473380000000    -0.367823   
O254     O      0.840850000000     0.133040000000     0.070150000000    -0.367795   
O255     O      0.860520000000     0.552850000000     0.031810000000    -0.68749    
O256     O      0.656530000000     0.051360000000     0.715800000000    -0.381004   
O257     O      0.122370000000     0.464830000000     0.842140000000    -0.384338   
O258     O      0.690950000000     0.084280000000     0.812910000000    -0.360005   
O259     O      0.036590000000     0.478100000000     0.760860000000    -0.373184   
O260     O      0.690200000000     0.528730000000     0.837460000000    -0.388941   
O261     O      0.587660000000     0.486980000000     0.722980000000    -0.388749   
O262     O      0.058990000000     0.462580000000     0.821760000000    -0.361952   
O263     O      0.678510000000     0.090160000000     0.758120000000    -0.363142   
O264     O      0.044970000000     0.049780000000     0.719970000000    -0.372045   
O265     O      0.136090000000     0.058280000000     0.877130000000    -0.363753   
O266     O      0.608680000000     0.124140000000     0.762240000000    -0.388254   
O267     O      0.034090000000     0.513150000000     0.851670000000    -0.380342   
O268     O      0.092930000000     0.515160000000     0.881120000000    -0.361793   
O269     O      0.597050000000     0.089770000000     0.713380000000    -0.360405   
O270     O      0.012420000000     0.543640000000     0.772670000000    -0.392717   
O271     O      0.620190000000     0.106930000000     0.843240000000    -0.397267   
O272     O      0.607440000000     0.536140000000     0.790850000000    -0.668862   
O273     O      0.615280000000     0.217170000000     0.594580000000    -0.366749   
O274     O      0.053100000000     0.367140000000     0.050040000000    -0.366674   
O275     O      0.631410000000     0.319930000000     0.640740000000    -0.375976   
O276     O      0.024900000000     0.271110000000     0.021240000000    -0.363786   
O277     O      0.090860000000     0.361620000000     0.615420000000    -0.373874   
O278     O      0.056770000000     0.236460000000     0.561510000000    -0.384121   
O279     O      0.024330000000     0.328500000000     0.011530000000    -0.360363   
O280     O      0.644550000000     0.257100000000     0.631540000000    -0.362885   
O281     O      0.607220000000     0.216450000000     0.996840000000    -0.372413   
O282     O      0.666960000000     0.375750000000     0.043050000000    -0.369636   
O283     O      0.702950000000     0.269480000000     0.578870000000    -0.365585   
O284     O      0.088210000000     0.330590000000     0.959220000000    -0.366914   
O285     O      0.112210000000     0.377300000000     0.991130000000    -0.368457   
O286     O      0.671460000000     0.232420000000     0.540430000000    -0.365587   
O287     O      0.078060000000     0.259180000000     0.963060000000    -0.371995   
O288     O      0.697450000000     0.336620000000     0.592900000000    -0.367068   
O289     O      0.126060000000     0.303950000000     0.545480000000    -0.585705   
O290     O      0.945000000000     0.052790000000     0.569260000000    -0.368848   
O291     O      0.762410000000     0.533130000000     0.022910000000    -0.364965   
O292     O      0.801360000000     0.088110000000     0.603990000000    -0.390102   
O293     O      0.894900000000     0.470650000000     0.038370000000    -0.395903   
O294     O      0.760120000000     0.589090000000     0.556150000000    -0.366353   
O295     O      0.939490000000     0.506020000000     0.530120000000    -0.367265   
O296     O      0.800530000000     0.485190000000     0.037940000000    -0.395113   
O297     O      0.897830000000     0.064220000000     0.611020000000    -0.390528   
O298     O      0.928030000000     0.039390000000     0.971000000000    -0.39188    
O299     O      0.809480000000     0.125450000000     0.017050000000    -0.393098   
O300     O      0.899110000000     0.124660000000     0.576030000000    -0.365795   
O301     O      0.820280000000     0.497290000000     0.968230000000    -0.363048   
O302     O      0.797580000000     0.554630000000     0.964200000000    -0.390757   
O303     O      0.931190000000     0.106060000000     0.526060000000    -0.389941   
O304     O      0.882930000000     0.493830000000     0.967550000000    -0.36608    
O305     O      0.836270000000     0.137600000000     0.565810000000    -0.367057   
O306     O      0.852060000000     0.553580000000     0.535070000000    -0.688128   
O307     O      0.645270000000     0.560270000000     0.219730000000    -0.373365   
O308     O      0.119810000000     0.978790000000     0.357540000000    -0.369385   
O309     O      0.688900000000     0.585120000000     0.314410000000    -0.359325   
O310     O      0.057690000000     0.969570000000     0.261730000000    -0.371579   
O311     O      0.679270000000     0.031370000000     0.343290000000    -0.382964   
O312     O      0.591730000000     0.002300000000     0.220740000000    -0.380772   
O313     O      0.069050000000     0.959410000000     0.323070000000    -0.359243   
O314     O      0.675070000000     0.595640000000     0.260890000000    -0.360098   
O315     O      0.034810000000     0.550440000000     0.225650000000    -0.367447   
O316     O      0.128880000000     0.571240000000     0.381550000000    -0.36382    
O317     O      0.611400000000     0.635480000000     0.266870000000    -0.373039   
O318     O      0.025500000000     0.005830000000     0.349550000000    -0.369306   
O319     O      0.076480000000     0.026080000000     0.383300000000    -0.360418   
O320     O      0.586840000000     0.601860000000     0.221730000000    -0.358887   
O321     O      0.004040000000     0.025290000000     0.273400000000    -0.378998   
O322     O      0.623710000000     0.620150000000     0.345880000000    -0.38255    
O323     O      0.588550000000     0.054300000000     0.300760000000    -0.611534   
O324     O      0.611180000000     0.719140000000     0.090570000000    -0.359976   
O325     O      0.048640000000     0.867740000000     0.569180000000    -0.366668   
O326     O      0.624580000000     0.832400000000     0.123930000000    -0.37174    
O327     O      0.027240000000     0.775100000000     0.523750000000    -0.367492   
O328     O      0.098940000000     0.875930000000     0.088640000000    -0.363644   
O329     O      0.057190000000     0.732790000000     0.057430000000    -0.375785   
O330     O      0.025540000000     0.835560000000     0.522480000000    -0.358786   
O331     O      0.632580000000     0.765200000000     0.124780000000    -0.365404   
O332     O      0.610400000000     0.725850000000     0.501570000000    -0.372745   
O333     O      0.661630000000     0.879750000000     0.565570000000    -0.366273   
O334     O      0.698090000000     0.769270000000     0.077060000000    -0.360544   
O335     O      0.086030000000     0.849090000000     0.478860000000    -0.365533   
O336     O      0.112410000000     0.886960000000     0.519610000000    -0.360644   
O337     O      0.672030000000     0.729780000000     0.037720000000    -0.370507   
O338     O      0.087430000000     0.773270000000     0.470060000000    -0.374997   
O339     O      0.695360000000     0.835100000000     0.079600000000    -0.362569   
O340     O      0.125210000000     0.799360000000     0.032190000000    -0.582234   
O341     O      0.952680000000     0.550250000000     0.068300000000    -0.370549   
O342     O      0.754330000000     0.035850000000     0.530920000000    -0.368032   
O343     O      0.809070000000     0.578370000000     0.103220000000    -0.391537   
O344     O      0.886270000000     0.971420000000     0.545160000000    -0.392993   
O345     O      0.767350000000     0.081250000000     0.055760000000    -0.367622   
O346     O      0.948770000000     0.005720000000     0.027430000000    -0.369239   
O347     O      0.792240000000     0.988590000000     0.548250000000    -0.397129   
O348     O      0.903260000000     0.555890000000     0.109040000000    -0.393622   
O349     O      0.915430000000     0.536970000000     0.471990000000    -0.391953   
O350     O      0.803280000000     0.626440000000     0.514370000000    -0.391787   
O351     O      0.905340000000     0.621220000000     0.077920000000    -0.368663   
O352     O      0.809010000000     0.994760000000     0.475960000000    -0.363181   
O353     O      0.788550000000     0.052350000000     0.467960000000    -0.393597   
O354     O      0.939010000000     0.606050000000     0.027660000000    -0.392192   
O355     O      0.871820000000     0.989980000000     0.474230000000    -0.36625    
O356     O      0.840740000000     0.633130000000     0.070000000000    -0.367769   
O357     O      0.860840000000     0.052870000000     0.031860000000    -0.687348   
O358     O      0.655930000000     0.551140000000     0.715760000000    -0.38087    
O359     O      0.122910000000     0.964930000000     0.842130000000    -0.383737   
O360     O      0.689860000000     0.584540000000     0.813080000000    -0.359989   
O361     O      0.037050000000     0.978600000000     0.761070000000    -0.372618   
O362     O      0.691070000000     0.028360000000     0.837030000000    -0.389067   
O363     O      0.588150000000     0.987300000000     0.723190000000    -0.388174   
O364     O      0.059470000000     0.962940000000     0.821890000000    -0.361587   
O365     O      0.677660000000     0.590050000000     0.758090000000    -0.363238   
O366     O      0.044360000000     0.549320000000     0.719720000000    -0.372261   
O367     O      0.134930000000     0.558260000000     0.877060000000    -0.363502   
O368     O      0.607730000000     0.623870000000     0.761970000000    -0.388121   
O369     O      0.034920000000     0.013500000000     0.851920000000    -0.38055    
O370     O      0.093860000000     0.015340000000     0.881240000000    -0.361909   
O371     O      0.596470000000     0.589400000000     0.713100000000    -0.360362   
O372     O      0.013110000000     0.044190000000     0.772980000000    -0.392614   
O373     O      0.618930000000     0.606800000000     0.843040000000    -0.396946   
O374     O      0.608140000000     0.036430000000     0.791000000000    -0.668968   
O375     O      0.615300000000     0.717090000000     0.594580000000    -0.366397   
O376     O      0.053050000000     0.867180000000     0.050080000000    -0.366648   
O377     O      0.631280000000     0.819980000000     0.641150000000    -0.375847   
O378     O      0.024780000000     0.771240000000     0.021050000000    -0.3636     
O379     O      0.090910000000     0.861820000000     0.615880000000    -0.373674   
O380     O      0.056850000000     0.736400000000     0.561770000000    -0.383941   
O381     O      0.024180000000     0.828640000000     0.011530000000    -0.360448   
O382     O      0.644230000000     0.756990000000     0.631780000000    -0.362998   
O383     O      0.606860000000     0.716640000000     0.996440000000    -0.372544   
O384     O      0.666940000000     0.875800000000     0.042810000000    -0.369437   
O385     O      0.702800000000     0.769500000000     0.579380000000    -0.365447   
O386     O      0.088190000000     0.830750000000     0.959040000000    -0.367134   
O387     O      0.112180000000     0.877450000000     0.990960000000    -0.36865    
O388     O      0.671490000000     0.732610000000     0.540660000000    -0.365741   
O389     O      0.077620000000     0.759430000000     0.962790000000    -0.371783   
O390     O      0.697290000000     0.836600000000     0.593420000000    -0.366992   
O391     O      0.125920000000     0.804110000000     0.545810000000    -0.585525   
O392     O      0.945100000000     0.552510000000     0.568790000000    -0.368801   
O393     O      0.762700000000     0.033060000000     0.022680000000    -0.364471   
O394     O      0.801590000000     0.587820000000     0.603910000000    -0.390082   
O395     O      0.895130000000     0.970630000000     0.038700000000    -0.395211   
O396     O      0.759990000000     0.089130000000     0.556140000000    -0.366546   
O397     O      0.939460000000     0.006010000000     0.530940000000    -0.367824   
O398     O      0.800780000000     0.985140000000     0.037850000000    -0.393712   
O399     O      0.897970000000     0.563730000000     0.610650000000    -0.390523   
O400     O      0.927250000000     0.539740000000     0.970560000000    -0.39215    
O401     O      0.809280000000     0.625500000000     0.016950000000    -0.393173   
O402     O      0.899340000000     0.624410000000     0.576070000000    -0.365983   
O403     O      0.820920000000     0.997310000000     0.968190000000    -0.361918   
O404     O      0.798040000000     0.054590000000     0.964160000000    -0.390528   
O405     O      0.931380000000     0.606100000000     0.525980000000    -0.389873   
O406     O      0.883540000000     0.993620000000     0.967850000000    -0.364833   
O407     O      0.836410000000     0.637490000000     0.565990000000    -0.366933   
O408     O      0.851960000000     0.053490000000     0.535480000000    -0.688072   


