data_structure

_audit_creation_method RASPA-1.0
_audit_creation_date 2023-5-19
_audit_author_name 'Poobodin Mano'

_cell_length_a    29.7403
_cell_length_b    27.8691
_cell_length_c    31.2739
_cell_angle_alpha 90
_cell_angle_beta  90
_cell_angle_gamma 90
_cell_volume      25920.9

_symmetry_cell_setting          triclinic
_symmetry_space_group_name_Hall 'P 1'
_symmetry_space_group_name_H-M  'P 1'
_symmetry_Int_Tables_number     1

_symmetry_equiv_pos_as_xyz 'x,y,z'

loop_
_atom_site_label
_atom_site_type_symbol
_atom_site_fract_x
_atom_site_fract_y
_atom_site_fract_z
_atom_site_charge
C1       C      0.494240000000     0.488030000000     0.079570000000     0.405237   
C2       C      0.455220000000     0.143540000000     0.451320000000     0.410167   
C3       C      0.490750000000     0.171690000000     0.077750000000     0.411169   
C4       C      0.492320000000     0.469510000000     0.440100000000     0.413217   
C5       C      0.089630000000     0.504720000000     0.412230000000     0.402512   
C6       C      0.106550000000     0.163890000000     0.071340000000     0.405527   
C7       C      0.120860000000     0.509220000000     0.072170000000     0.407677   
C8       C      0.086790000000     0.149480000000     0.415830000000     0.399826   
C9       C      0.342950000000     0.422140000000     0.204290000000     0.405076   
C10      C      0.381980000000     0.266640000000     0.332540000000     0.410038   
C11      C      0.344860000000     0.440670000000     0.343770000000     0.413226   
C12      C      0.346440000000     0.238490000000     0.206110000000     0.41125    
C13      C      0.230630000000     0.246290000000     0.212530000000     0.405456   
C14      C      0.247550000000     0.405460000000     0.371630000000     0.402394   
C15      C      0.216330000000     0.400960000000     0.211700000000     0.407729   
C16      C      0.250400000000     0.260690000000     0.368040000000     0.399694   
C17      C      0.154030000000     0.184030000000     0.134150000000    -0.010951   
C18      C      0.183160000000     0.226160000000     0.149720000000    -0.010987   
C19      C      0.143660000000     0.211450000000     0.394720000000    -0.0110378  
C20      C      0.193530000000     0.198720000000     0.389140000000    -0.0110343  
C21      C      0.174710000000     0.428810000000     0.146950000000    -0.0104454  
C22      C      0.162480000000     0.481370000000     0.136920000000    -0.0103834  
C23      C      0.438850000000     0.188520000000     0.138130000000    -0.0101291  
C24      C      0.398330000000     0.221660000000     0.145730000000    -0.0102462  
C25      C      0.439610000000     0.440880000000     0.385370000000    -0.00384699 
C26      C      0.397580000000     0.469300000000     0.398510000000    -0.00388269 
C27      C      0.423080000000     0.201300000000     0.367950000000    -0.00927679 
C28      C      0.414120000000     0.208880000000     0.415910000000    -0.00928376 
C29      C      0.145370000000     0.444550000000     0.388130000000    -0.00532295 
C30      C      0.191810000000     0.465630000000     0.395740000000    -0.0053775  
C31      C      0.437470000000     0.473260000000     0.136830000000    -0.0120165  
C32      C      0.399720000000     0.436920000000     0.147040000000    -0.0121014  
C33      C      0.494240000000     0.488030000000     0.579580000000     0.405154   
C34      C      0.455220000000     0.143540000000     0.951320000000     0.409986   
C35      C      0.490750000000     0.171690000000     0.577750000000     0.411249   
C36      C      0.492320000000     0.469510000000     0.940100000000     0.413417   
C37      C      0.089630000000     0.504720000000     0.912240000000     0.402758   
C38      C      0.106550000000     0.163890000000     0.571340000000     0.405567   
C39      C      0.120860000000     0.509220000000     0.572170000000     0.407573   
C40      C      0.086790000000     0.149480000000     0.915820000000     0.399706   
C41      C      0.342950000000     0.422140000000     0.704290000000     0.405074   
C42      C      0.381980000000     0.266640000000     0.832540000000     0.410047   
C43      C      0.344860000000     0.440670000000     0.843770000000     0.413321   
C44      C      0.346440000000     0.238490000000     0.706120000000     0.41128    
C45      C      0.230630000000     0.246290000000     0.712530000000     0.405459   
C46      C      0.247550000000     0.405460000000     0.871630000000     0.402369   
C47      C      0.216330000000     0.400960000000     0.711700000000     0.407733   
C48      C      0.250400000000     0.260690000000     0.868040000000     0.399666   
C49      C      0.154030000000     0.184030000000     0.634150000000    -0.0109685  
C50      C      0.183160000000     0.226160000000     0.649720000000    -0.0109709  
C51      C      0.143660000000     0.211450000000     0.894730000000    -0.0110101  
C52      C      0.193530000000     0.198720000000     0.889140000000    -0.0110656  
C53      C      0.174710000000     0.428810000000     0.646950000000    -0.0104143  
C54      C      0.162480000000     0.481370000000     0.636920000000    -0.0104286  
C55      C      0.438850000000     0.188520000000     0.638130000000    -0.0101833  
C56      C      0.398330000000     0.221660000000     0.645730000000    -0.0101917  
C57      C      0.439610000000     0.440880000000     0.885360000000    -0.00400816 
C58      C      0.397580000000     0.469300000000     0.898510000000    -0.00382549 
C59      C      0.423080000000     0.201300000000     0.867950000000    -0.00928084 
C60      C      0.414120000000     0.208880000000     0.915910000000    -0.00927254 
C61      C      0.145370000000     0.444550000000     0.888130000000    -0.00533003 
C62      C      0.191810000000     0.465630000000     0.895740000000    -0.00539085 
C63      C      0.437470000000     0.473260000000     0.636830000000    -0.0121106  
C64      C      0.399720000000     0.436920000000     0.647040000000    -0.0120345  
C65      C      0.494240000000     0.988040000000     0.079570000000     0.40569    
C66      C      0.455220000000     0.643540000000     0.451320000000     0.410347   
C67      C      0.490750000000     0.671690000000     0.077750000000     0.411215   
C68      C      0.492320000000     0.969510000000     0.440100000000     0.413605   
C69      C      0.089630000000     0.004720000000     0.412230000000     0.401772   
C70      C      0.106550000000     0.663890000000     0.071340000000     0.405523   
C71      C      0.120860000000     0.009220000000     0.072170000000     0.40732    
C72      C      0.086790000000     0.649480000000     0.415830000000     0.399836   
C73      C      0.342950000000     0.922140000000     0.204290000000     0.405158   
C74      C      0.381980000000     0.766640000000     0.332540000000     0.410036   
C75      C      0.344860000000     0.940670000000     0.343770000000     0.413164   
C76      C      0.346440000000     0.738490000000     0.206110000000     0.411265   
C77      C      0.230630000000     0.746290000000     0.212530000000     0.405431   
C78      C      0.247550000000     0.905460000000     0.371630000000     0.402401   
C79      C      0.216330000000     0.900960000000     0.211700000000     0.407735   
C80      C      0.250400000000     0.760700000000     0.368040000000     0.399708   
C81      C      0.154030000000     0.684030000000     0.134150000000    -0.0109863  
C82      C      0.183160000000     0.726160000000     0.149720000000    -0.0109786  
C83      C      0.143660000000     0.711450000000     0.394720000000    -0.0110288  
C84      C      0.193530000000     0.698720000000     0.389140000000    -0.0110429  
C85      C      0.174710000000     0.928810000000     0.146950000000    -0.0105445  
C86      C      0.162480000000     0.981370000000     0.136920000000    -0.00997151 
C87      C      0.438850000000     0.688520000000     0.138130000000    -0.0101174  
C88      C      0.398330000000     0.721660000000     0.145730000000    -0.0102452  
C89      C      0.439610000000     0.940880000000     0.385370000000    -0.00391515 
C90      C      0.397580000000     0.969300000000     0.398510000000    -0.00348038 
C91      C      0.423080000000     0.701300000000     0.367950000000    -0.00928433 
C92      C      0.414120000000     0.708880000000     0.415910000000    -0.00927208 
C93      C      0.145370000000     0.944540000000     0.388130000000    -0.00538121 
C94      C      0.191810000000     0.965630000000     0.395740000000    -0.0053597  
C95      C      0.437470000000     0.973260000000     0.136830000000    -0.0115862  
C96      C      0.399720000000     0.936920000000     0.147040000000    -0.0121882  
C97      C      0.494240000000     0.988040000000     0.579580000000     0.405608   
C98      C      0.455220000000     0.643540000000     0.951320000000     0.410166   
C99      C      0.490750000000     0.671690000000     0.577750000000     0.411295   
C100     C      0.492320000000     0.969510000000     0.940100000000     0.413805   
C101     C      0.089630000000     0.004720000000     0.912240000000     0.402019   
C102     C      0.106550000000     0.663890000000     0.571340000000     0.405562   
C103     C      0.120860000000     0.009220000000     0.572170000000     0.407214   
C104     C      0.086790000000     0.649480000000     0.915820000000     0.399715   
C105     C      0.342950000000     0.922140000000     0.704290000000     0.405156   
C106     C      0.381980000000     0.766640000000     0.832540000000     0.410045   
C107     C      0.344860000000     0.940670000000     0.843770000000     0.413259   
C108     C      0.346440000000     0.738490000000     0.706120000000     0.411295   
C109     C      0.230630000000     0.746290000000     0.712530000000     0.405433   
C110     C      0.247550000000     0.905460000000     0.871630000000     0.402376   
C111     C      0.216330000000     0.900960000000     0.711700000000     0.40774    
C112     C      0.250400000000     0.760700000000     0.868040000000     0.399679   
C113     C      0.154030000000     0.684030000000     0.634150000000    -0.0110038  
C114     C      0.183160000000     0.726160000000     0.649720000000    -0.0109625  
C115     C      0.143660000000     0.711450000000     0.894730000000    -0.0110012  
C116     C      0.193530000000     0.698720000000     0.889140000000    -0.0110743  
C117     C      0.174710000000     0.928810000000     0.646950000000    -0.0105135  
C118     C      0.162480000000     0.981370000000     0.636920000000    -0.0100162  
C119     C      0.438850000000     0.688520000000     0.638130000000    -0.0101716  
C120     C      0.398330000000     0.721660000000     0.645730000000    -0.0101907  
C121     C      0.439610000000     0.940880000000     0.885360000000    -0.00407634 
C122     C      0.397580000000     0.969300000000     0.898510000000    -0.00342322 
C123     C      0.423080000000     0.701300000000     0.867950000000    -0.00928838 
C124     C      0.414120000000     0.708880000000     0.915910000000    -0.00926086 
C125     C      0.145370000000     0.944540000000     0.888130000000    -0.00538816 
C126     C      0.191810000000     0.965630000000     0.895740000000    -0.0053731  
C127     C      0.437470000000     0.973260000000     0.636830000000    -0.0116797  
C128     C      0.399720000000     0.936920000000     0.647040000000    -0.0121214  
C129     C      0.994240000000     0.488030000000     0.079570000000     0.404919   
C130     C      0.955220000000     0.143540000000     0.451320000000     0.4102     
C131     C      0.990750000000     0.171690000000     0.077750000000     0.410849   
C132     C      0.992320000000     0.469510000000     0.440100000000     0.413007   
C133     C      0.589630000000     0.504720000000     0.412230000000     0.4024     
C134     C      0.606550000000     0.163890000000     0.071340000000     0.40552    
C135     C      0.620860000000     0.509220000000     0.072170000000     0.407677   
C136     C      0.586790000000     0.149480000000     0.415830000000     0.399806   
C137     C      0.842940000000     0.422140000000     0.204290000000     0.405111   
C138     C      0.881970000000     0.266640000000     0.332540000000     0.410155   
C139     C      0.844860000000     0.440670000000     0.343770000000     0.413135   
C140     C      0.846440000000     0.238490000000     0.206110000000     0.411247   
C141     C      0.730630000000     0.246290000000     0.212530000000     0.405455   
C142     C      0.747550000000     0.405460000000     0.371630000000     0.402395   
C143     C      0.716330000000     0.400960000000     0.211700000000     0.407726   
C144     C      0.750400000000     0.260690000000     0.368040000000     0.399694   
C145     C      0.654030000000     0.184030000000     0.134150000000    -0.0109511  
C146     C      0.683160000000     0.226160000000     0.149720000000    -0.0109883  
C147     C      0.643660000000     0.211450000000     0.394720000000    -0.0110343  
C148     C      0.693530000000     0.198720000000     0.389140000000    -0.0110348  
C149     C      0.674710000000     0.428810000000     0.146950000000    -0.0104488  
C150     C      0.662470000000     0.481370000000     0.136920000000    -0.0103797  
C151     C      0.938850000000     0.188520000000     0.138130000000    -0.0101467  
C152     C      0.898330000000     0.221660000000     0.145730000000    -0.010243   
C153     C      0.939610000000     0.440880000000     0.385370000000    -0.00382355 
C154     C      0.897580000000     0.469300000000     0.398510000000    -0.00389153 
C155     C      0.923070000000     0.201300000000     0.367950000000    -0.00927537 
C156     C      0.914120000000     0.208880000000     0.415910000000    -0.00928222 
C157     C      0.645370000000     0.444550000000     0.388130000000    -0.00532748 
C158     C      0.691810000000     0.465630000000     0.395740000000    -0.00537608 
C159     C      0.937470000000     0.473260000000     0.136830000000    -0.0120332  
C160     C      0.899720000000     0.436920000000     0.147040000000    -0.012103   
C161     C      0.994240000000     0.488030000000     0.579580000000     0.404837   
C162     C      0.955220000000     0.143540000000     0.951320000000     0.410019   
C163     C      0.990750000000     0.171690000000     0.577750000000     0.410929   
C164     C      0.992320000000     0.469510000000     0.940100000000     0.413208   
C165     C      0.589630000000     0.504720000000     0.912240000000     0.402646   
C166     C      0.606550000000     0.163890000000     0.571340000000     0.40556    
C167     C      0.620860000000     0.509220000000     0.572170000000     0.407572   
C168     C      0.586790000000     0.149480000000     0.915820000000     0.399685   
C169     C      0.842940000000     0.422140000000     0.704290000000     0.405108   
C170     C      0.881970000000     0.266640000000     0.832540000000     0.410164   
C171     C      0.844860000000     0.440670000000     0.843770000000     0.413229   
C172     C      0.846440000000     0.238490000000     0.706120000000     0.411277   
C173     C      0.730630000000     0.246290000000     0.712530000000     0.405457   
C174     C      0.747550000000     0.405460000000     0.871630000000     0.40237    
C175     C      0.716330000000     0.400960000000     0.711700000000     0.40773    
C176     C      0.750400000000     0.260690000000     0.868040000000     0.399665   
C177     C      0.654030000000     0.184030000000     0.634150000000    -0.0109687  
C178     C      0.683160000000     0.226160000000     0.649720000000    -0.0109722  
C179     C      0.643660000000     0.211450000000     0.894730000000    -0.0110066  
C180     C      0.693530000000     0.198720000000     0.889140000000    -0.0110661  
C181     C      0.674710000000     0.428810000000     0.646950000000    -0.0104177  
C182     C      0.662470000000     0.481370000000     0.636920000000    -0.0104249  
C183     C      0.938850000000     0.188520000000     0.638130000000    -0.0102009  
C184     C      0.898330000000     0.221660000000     0.645730000000    -0.0101885  
C185     C      0.939610000000     0.440880000000     0.885360000000    -0.0039847  
C186     C      0.897580000000     0.469300000000     0.898510000000    -0.00383434 
C187     C      0.923070000000     0.201300000000     0.867950000000    -0.00927941 
C188     C      0.914120000000     0.208880000000     0.915910000000    -0.009271   
C189     C      0.645370000000     0.444550000000     0.888130000000    -0.00533455 
C190     C      0.691810000000     0.465630000000     0.895740000000    -0.00538943 
C191     C      0.937470000000     0.473260000000     0.636830000000    -0.0121272  
C192     C      0.899720000000     0.436920000000     0.647040000000    -0.0120361  
C193     C      0.994240000000     0.988040000000     0.079570000000     0.405372   
C194     C      0.955220000000     0.643540000000     0.451320000000     0.41038    
C195     C      0.990750000000     0.671690000000     0.077750000000     0.410894   
C196     C      0.992320000000     0.969510000000     0.440100000000     0.413395   
C197     C      0.589630000000     0.004720000000     0.412230000000     0.401661   
C198     C      0.606550000000     0.663890000000     0.071340000000     0.405515   
C199     C      0.620860000000     0.009220000000     0.072170000000     0.407319   
C200     C      0.586790000000     0.649480000000     0.415830000000     0.399815   
C201     C      0.842940000000     0.922140000000     0.204290000000     0.405193   
C202     C      0.881970000000     0.766640000000     0.332540000000     0.410153   
C203     C      0.844860000000     0.940670000000     0.343770000000     0.413073   
C204     C      0.846440000000     0.738490000000     0.206110000000     0.411262   
C205     C      0.730630000000     0.746290000000     0.212530000000     0.405429   
C206     C      0.747550000000     0.905460000000     0.371630000000     0.402402   
C207     C      0.716330000000     0.900960000000     0.211700000000     0.407732   
C208     C      0.750400000000     0.760700000000     0.368040000000     0.399707   
C209     C      0.654030000000     0.684030000000     0.134150000000    -0.0109864  
C210     C      0.683160000000     0.726160000000     0.149720000000    -0.0109799  
C211     C      0.643660000000     0.711450000000     0.394720000000    -0.0110253  
C212     C      0.693530000000     0.698720000000     0.389140000000    -0.0110434  
C213     C      0.674710000000     0.928810000000     0.146950000000    -0.0105478  
C214     C      0.662470000000     0.981370000000     0.136920000000    -0.0099681  
C215     C      0.938850000000     0.688520000000     0.138130000000    -0.010135   
C216     C      0.898330000000     0.721660000000     0.145730000000    -0.010242   
C217     C      0.939610000000     0.940880000000     0.385370000000    -0.0038917  
C218     C      0.897580000000     0.969300000000     0.398510000000    -0.00348934 
C219     C      0.923070000000     0.701300000000     0.367950000000    -0.00928291 
C220     C      0.914120000000     0.708880000000     0.415910000000    -0.00927054 
C221     C      0.645370000000     0.944540000000     0.388130000000    -0.00538573 
C222     C      0.691810000000     0.965630000000     0.395740000000    -0.00535828 
C223     C      0.937470000000     0.973260000000     0.136830000000    -0.011603   
C224     C      0.899720000000     0.936920000000     0.147040000000    -0.0121898  
C225     C      0.994240000000     0.988040000000     0.579580000000     0.405291   
C226     C      0.955220000000     0.643540000000     0.951320000000     0.410199   
C227     C      0.990750000000     0.671690000000     0.577750000000     0.410975   
C228     C      0.992320000000     0.969510000000     0.940100000000     0.413595   
C229     C      0.589630000000     0.004720000000     0.912240000000     0.401907   
C230     C      0.606550000000     0.663890000000     0.571340000000     0.405555   
C231     C      0.620860000000     0.009220000000     0.572170000000     0.407214   
C232     C      0.586790000000     0.649480000000     0.915820000000     0.399695   
C233     C      0.842940000000     0.922140000000     0.704290000000     0.405191   
C234     C      0.881970000000     0.766640000000     0.832540000000     0.410163   
C235     C      0.844860000000     0.940670000000     0.843770000000     0.413168   
C236     C      0.846440000000     0.738490000000     0.706120000000     0.411292   
C237     C      0.730630000000     0.746290000000     0.712530000000     0.405431   
C238     C      0.747550000000     0.905460000000     0.871630000000     0.402377   
C239     C      0.716330000000     0.900960000000     0.711700000000     0.407737   
C240     C      0.750400000000     0.760700000000     0.868040000000     0.399679   
C241     C      0.654030000000     0.684030000000     0.634150000000    -0.011004   
C242     C      0.683160000000     0.726160000000     0.649720000000    -0.0109638  
C243     C      0.643660000000     0.711450000000     0.894730000000    -0.0109977  
C244     C      0.693530000000     0.698720000000     0.889140000000    -0.0110748  
C245     C      0.674710000000     0.928810000000     0.646950000000    -0.0105167  
C246     C      0.662470000000     0.981370000000     0.636920000000    -0.0100128  
C247     C      0.938850000000     0.688520000000     0.638130000000    -0.0101892  
C248     C      0.898330000000     0.721660000000     0.645730000000    -0.0101875  
C249     C      0.939610000000     0.940880000000     0.885360000000    -0.00405288 
C250     C      0.897580000000     0.969300000000     0.898510000000    -0.0034322  
C251     C      0.923070000000     0.701300000000     0.867950000000    -0.00928694 
C252     C      0.914120000000     0.708880000000     0.915910000000    -0.00925933 
C253     C      0.645370000000     0.944540000000     0.888130000000    -0.00539267 
C254     C      0.691810000000     0.965630000000     0.895740000000    -0.00537168 
C255     C      0.937470000000     0.973260000000     0.636830000000    -0.0116965  
C256     C      0.899720000000     0.936920000000     0.647040000000    -0.0121231  
Co1      Co     0.554740000000     0.509770000000     0.503580000000     0.838314   
Co2      Co     0.041800000000     0.145930000000     0.999870000000     0.850872   
Co3      Co     0.543870000000     0.579710000000     0.069890000000     0.862665   
Co4      Co     0.022260000000     0.571470000000     0.442670000000     0.856824   
Co5      Co     0.293320000000     0.330480000000     0.213980000000     0.862562   
Co6      Co     0.314930000000     0.338710000000     0.341200000000     0.856637   
Co7      Co     0.282450000000     0.400410000000     0.280290000000     0.838332   
Co8      Co     0.295390000000     0.264250000000     0.283990000000     0.853196   
Co9      Co     0.554740000000     0.509770000000     0.003580000000     0.840127   
Co10     Co     0.041800000000     0.145930000000     0.499870000000     0.853174   
Co11     Co     0.543870000000     0.579710000000     0.569880000000     0.862401   
Co12     Co     0.022260000000     0.571470000000     0.942660000000     0.85608    
Co13     Co     0.293320000000     0.330480000000     0.713980000000     0.862533   
Co14     Co     0.314930000000     0.338710000000     0.841200000000     0.856648   
Co15     Co     0.282450000000     0.400410000000     0.780290000000     0.838357   
Co16     Co     0.295390000000     0.264250000000     0.783990000000     0.853218   
Co17     Co     0.554740000000     0.009770000000     0.503580000000     0.837751   
Co18     Co     0.041800000000     0.645930000000     0.999870000000     0.850895   
Co19     Co     0.543870000000     0.079710000000     0.069890000000     0.862667   
Co20     Co     0.022260000000     0.071470000000     0.442670000000     0.856806   
Co21     Co     0.293320000000     0.830470000000     0.213980000000     0.862573   
Co22     Co     0.314930000000     0.838710000000     0.341200000000     0.856633   
Co23     Co     0.282450000000     0.900410000000     0.280290000000     0.838359   
Co24     Co     0.295390000000     0.764250000000     0.283990000000     0.853163   
Co25     Co     0.554740000000     0.009770000000     0.003580000000     0.839565   
Co26     Co     0.041800000000     0.645930000000     0.499870000000     0.853197   
Co27     Co     0.543870000000     0.079710000000     0.569880000000     0.862403   
Co28     Co     0.022260000000     0.071470000000     0.942660000000     0.856061   
Co29     Co     0.293320000000     0.830470000000     0.713980000000     0.862545   
Co30     Co     0.314930000000     0.838710000000     0.841200000000     0.856643   
Co31     Co     0.282450000000     0.900410000000     0.780290000000     0.838383   
Co32     Co     0.295390000000     0.764250000000     0.783990000000     0.853185   
Co33     Co     0.054740000000     0.509770000000     0.503580000000     0.83829    
Co34     Co     0.541800000000     0.145930000000     0.999870000000     0.850814   
Co35     Co     0.043870000000     0.579710000000     0.069890000000     0.862646   
Co36     Co     0.522260000000     0.571470000000     0.442670000000     0.856609   
Co37     Co     0.793320000000     0.330480000000     0.213980000000     0.862558   
Co38     Co     0.814930000000     0.338710000000     0.341200000000     0.856628   
Co39     Co     0.782450000000     0.400410000000     0.280290000000     0.83836    
Co40     Co     0.795390000000     0.264250000000     0.283990000000     0.853206   
Co41     Co     0.054740000000     0.509770000000     0.003580000000     0.840104   
Co42     Co     0.541800000000     0.145930000000     0.499870000000     0.853114   
Co43     Co     0.043870000000     0.579710000000     0.569880000000     0.862382   
Co44     Co     0.522260000000     0.571470000000     0.942660000000     0.855866   
Co45     Co     0.793320000000     0.330480000000     0.713980000000     0.862529   
Co46     Co     0.814930000000     0.338710000000     0.841200000000     0.856639   
Co47     Co     0.782450000000     0.400410000000     0.780290000000     0.838384   
Co48     Co     0.795390000000     0.264250000000     0.783990000000     0.853228   
Co49     Co     0.054740000000     0.009770000000     0.503580000000     0.837727   
Co50     Co     0.541800000000     0.645930000000     0.999870000000     0.850837   
Co51     Co     0.043870000000     0.079710000000     0.069890000000     0.862648   
Co52     Co     0.522260000000     0.071470000000     0.442670000000     0.856591   
Co53     Co     0.793320000000     0.830470000000     0.213980000000     0.862569   
Co54     Co     0.814930000000     0.838710000000     0.341200000000     0.856623   
Co55     Co     0.782450000000     0.900410000000     0.280290000000     0.838387   
Co56     Co     0.795390000000     0.764250000000     0.283990000000     0.853173   
Co57     Co     0.054740000000     0.009770000000     0.003580000000     0.839541   
Co58     Co     0.541800000000     0.645930000000     0.499870000000     0.853137   
Co59     Co     0.043870000000     0.079710000000     0.569880000000     0.862384   
Co60     Co     0.522260000000     0.071470000000     0.942660000000     0.855848   
Co61     Co     0.793320000000     0.830470000000     0.713980000000     0.862541   
Co62     Co     0.814930000000     0.838710000000     0.841200000000     0.856634   
Co63     Co     0.782450000000     0.900410000000     0.780290000000     0.838411   
Co64     Co     0.795390000000     0.764250000000     0.783990000000     0.853196   
H1       H      0.151660000000     0.220390000000     0.072590000000     0.105203   
H2       H      0.185530000000     0.189790000000     0.211270000000     0.104946   
H3       H      0.124600000000     0.179480000000     0.155740000000     0.0496803  
H4       H      0.173840000000     0.150220000000     0.135440000000     0.0470015  
H5       H      0.163350000000     0.259960000000     0.148430000000     0.047043   
H6       H      0.212590000000     0.230700000000     0.128130000000     0.0497918  
H7       H      0.116280000000     0.154320000000     0.355870000000     0.105167   
H8       H      0.220920000000     0.255850000000     0.427990000000     0.10519    
H9       H      0.135150000000     0.239600000000     0.370880000000     0.0427792  
H10      H      0.138080000000     0.226460000000     0.427230000000     0.0551336  
H11      H      0.199110000000     0.183710000000     0.356630000000     0.0551032  
H12      H      0.202040000000     0.170580000000     0.412980000000     0.0427399  
H13      H      0.157830000000     0.440720000000     0.213010000000     0.104292   
H14      H      0.179360000000     0.469470000000     0.070860000000     0.104511   
H15      H      0.205680000000     0.418370000000     0.129280000000     0.0506781  
H16      H      0.146680000000     0.405400000000     0.136160000000     0.044757   
H17      H      0.190510000000     0.504790000000     0.147710000000     0.0447106  
H18      H      0.131510000000     0.491810000000     0.154580000000     0.0505885  
H19      H      0.456010000000     0.235310000000     0.085130000000     0.106627   
H20      H      0.381180000000     0.174870000000     0.198730000000     0.106443   
H21      H      0.427440000000     0.150530000000     0.136410000000     0.0486942  
H22      H      0.462640000000     0.191530000000     0.165420000000     0.0465128  
H23      H      0.374540000000     0.218650000000     0.118450000000     0.0466892  
H24      H      0.409740000000     0.259650000000     0.147450000000     0.0487359  
H25      H      0.470760000000     0.398790000000     0.435460000000     0.1093     
H26      H      0.366430000000     0.511380000000     0.348420000000     0.10936    
H27      H      0.458060000000     0.461380000000     0.360370000000     0.0522992  
H28      H      0.430180000000     0.405430000000     0.371910000000     0.0543004  
H29      H      0.407010000000     0.504750000000     0.411970000000     0.0543118  
H30      H      0.379130000000     0.448790000000     0.423510000000     0.0523006  
H31      H      0.447950000000     0.270960000000     0.352540000000     0.104624   
H32      H      0.389240000000     0.139230000000     0.431320000000     0.104599   
H33      H      0.397930000000     0.175920000000     0.354430000000     0.0523255  
H34      H      0.457320000000     0.185960000000     0.363890000000     0.043336   
H35      H      0.379870000000     0.224220000000     0.419960000000     0.043341   
H36      H      0.439260000000     0.234260000000     0.429430000000     0.0523551  
H37      H      0.109900000000     0.495650000000     0.349350000000     0.108355   
H38      H      0.227280000000     0.414520000000     0.434520000000     0.108314   
H39      H      0.135140000000     0.422420000000     0.416110000000     0.0532382  
H40      H      0.146560000000     0.421360000000     0.359200000000     0.0444206  
H41      H      0.190620000000     0.488810000000     0.424670000000     0.0444316  
H42      H      0.202040000000     0.487760000000     0.367760000000     0.0532375  
H43      H      0.459530000000     0.424050000000     0.086860000000     0.105389   
H44      H      0.377660000000     0.486130000000     0.197010000000     0.105235   
H45      H      0.460090000000     0.476740000000     0.164950000000     0.0473994  
H46      H      0.422540000000     0.509240000000     0.130870000000     0.0488661  
H47      H      0.414650000000     0.400940000000     0.153000000000     0.0488477  
H48      H      0.377100000000     0.433440000000     0.118920000000     0.0475584  
H49      H      0.151660000000     0.220390000000     0.572600000000     0.104993   
H50      H      0.185530000000     0.189790000000     0.711270000000     0.104944   
H51      H      0.124600000000     0.179480000000     0.655730000000     0.0496895  
H52      H      0.173840000000     0.150220000000     0.635440000000     0.0469446  
H53      H      0.163350000000     0.259960000000     0.648430000000     0.0469903  
H54      H      0.212590000000     0.230700000000     0.628130000000     0.0496815  
H55      H      0.116280000000     0.154320000000     0.855870000000     0.105164   
H56      H      0.220920000000     0.255850000000     0.927990000000     0.105013   
H57      H      0.135150000000     0.239600000000     0.870880000000     0.0427483  
H58      H      0.138080000000     0.226460000000     0.927240000000     0.0549664  
H59      H      0.199110000000     0.183710000000     0.856630000000     0.0550953  
H60      H      0.202040000000     0.170580000000     0.912980000000     0.0426089  
H61      H      0.157830000000     0.440720000000     0.713010000000     0.104294   
H62      H      0.179360000000     0.469470000000     0.570860000000     0.104295   
H63      H      0.205680000000     0.418370000000     0.629280000000     0.0505763  
H64      H      0.146680000000     0.405400000000     0.636160000000     0.0446837  
H65      H      0.190510000000     0.504790000000     0.647710000000     0.0446749  
H66      H      0.131510000000     0.491810000000     0.654580000000     0.0505959  
H67      H      0.456010000000     0.235310000000     0.585130000000     0.106462   
H68      H      0.381180000000     0.174870000000     0.698730000000     0.106425   
H69      H      0.427440000000     0.150530000000     0.636410000000     0.0486457  
H70      H      0.462640000000     0.191530000000     0.665420000000     0.0465242  
H71      H      0.374540000000     0.218650000000     0.618440000000     0.0465306  
H72      H      0.409740000000     0.259650000000     0.647450000000     0.0486734  
H73      H      0.470760000000     0.398790000000     0.935460000000     0.109177   
H74      H      0.366430000000     0.511380000000     0.848420000000     0.109345   
H75      H      0.458060000000     0.461380000000     0.860370000000     0.0523422  
H76      H      0.430180000000     0.405430000000     0.871910000000     0.0543183  
H77      H      0.407010000000     0.504750000000     0.911970000000     0.0542092  
H78      H      0.379130000000     0.448790000000     0.923500000000     0.0521377  
H79      H      0.447950000000     0.270960000000     0.852540000000     0.104599   
H80      H      0.389240000000     0.139230000000     0.931320000000     0.104478   
H81      H      0.397930000000     0.175920000000     0.854420000000     0.0523219  
H82      H      0.457320000000     0.185960000000     0.863900000000     0.0433464  
H83      H      0.379870000000     0.224220000000     0.919960000000     0.0432095  
H84      H      0.439260000000     0.234260000000     0.929440000000     0.0522172  
H85      H      0.109900000000     0.495650000000     0.849350000000     0.108404   
H86      H      0.227280000000     0.414520000000     0.934520000000     0.108116   
H87      H      0.135140000000     0.422420000000     0.916110000000     0.0531179  
H88      H      0.146560000000     0.421360000000     0.859200000000     0.04441    
H89      H      0.190620000000     0.488810000000     0.924670000000     0.0442619  
H90      H      0.202040000000     0.487760000000     0.867760000000     0.0532107  
H91      H      0.459530000000     0.424050000000     0.586860000000     0.105255   
H92      H      0.377660000000     0.486130000000     0.697010000000     0.105223   
H93      H      0.460090000000     0.476740000000     0.664950000000     0.047417   
H94      H      0.422540000000     0.509240000000     0.630870000000     0.0488165  
H95      H      0.414650000000     0.400940000000     0.653000000000     0.0487907  
H96      H      0.377100000000     0.433440000000     0.618910000000     0.0473993  
H97      H      0.151660000000     0.720400000000     0.072590000000     0.105171   
H98      H      0.185530000000     0.689790000000     0.211270000000     0.105002   
H99      H      0.124600000000     0.679480000000     0.155740000000     0.0497034  
H100     H      0.173840000000     0.650230000000     0.135440000000     0.0470471  
H101     H      0.163350000000     0.759960000000     0.148430000000     0.0470411  
H102     H      0.212590000000     0.730700000000     0.128130000000     0.0498011  
H103     H      0.116280000000     0.654320000000     0.355870000000     0.105198   
H104     H      0.220920000000     0.755850000000     0.427990000000     0.105191   
H105     H      0.135150000000     0.739600000000     0.370880000000     0.0427791  
H106     H      0.138080000000     0.726460000000     0.427230000000     0.0551354  
H107     H      0.199110000000     0.683710000000     0.356630000000     0.0551313  
H108     H      0.202040000000     0.670580000000     0.412980000000     0.0427742  
H109     H      0.157830000000     0.940720000000     0.213010000000     0.104334   
H110     H      0.179360000000     0.969470000000     0.070860000000     0.104578   
H111     H      0.205680000000     0.918380000000     0.129280000000     0.0507305  
H112     H      0.146680000000     0.905400000000     0.136160000000     0.0447948  
H113     H      0.190510000000     0.004790000000     0.147710000000     0.0443593  
H114     H      0.131510000000     0.991810000000     0.154580000000     0.0506167  
H115     H      0.456010000000     0.735310000000     0.085130000000     0.106591   
H116     H      0.381180000000     0.674870000000     0.198730000000     0.106471   
H117     H      0.427440000000     0.650530000000     0.136410000000     0.0487215  
H118     H      0.462640000000     0.691530000000     0.165420000000     0.0465224  
H119     H      0.374540000000     0.718650000000     0.118450000000     0.0467019  
H120     H      0.409740000000     0.759650000000     0.147450000000     0.0487381  
H121     H      0.470760000000     0.898790000000     0.435460000000     0.10931    
H122     H      0.366430000000     0.011380000000     0.348420000000     0.1091     
H123     H      0.458060000000     0.961380000000     0.360370000000     0.0524047  
H124     H      0.430180000000     0.905430000000     0.371910000000     0.0543188  
H125     H      0.407010000000     0.004750000000     0.411970000000     0.0540064  
H126     H      0.379130000000     0.948790000000     0.423510000000     0.0522644  
H127     H      0.447950000000     0.770960000000     0.352540000000     0.104627   
H128     H      0.389240000000     0.639230000000     0.431320000000     0.104635   
H129     H      0.397930000000     0.675920000000     0.354430000000     0.0523478  
H130     H      0.457320000000     0.685960000000     0.363890000000     0.0433493  
H131     H      0.379870000000     0.724220000000     0.419960000000     0.0433471  
H132     H      0.439260000000     0.734260000000     0.429430000000     0.0523532  
H133     H      0.109900000000     0.995650000000     0.349350000000     0.108402   
H134     H      0.227280000000     0.914520000000     0.434520000000     0.108339   
H135     H      0.135140000000     0.922420000000     0.416110000000     0.0532772  
H136     H      0.146560000000     0.921360000000     0.359200000000     0.0444532  
H137     H      0.190620000000     0.988810000000     0.424670000000     0.0445167  
H138     H      0.202040000000     0.987760000000     0.367760000000     0.0533039  
H139     H      0.459530000000     0.924050000000     0.086860000000     0.10541    
H140     H      0.377660000000     0.986130000000     0.197010000000     0.105326   
H141     H      0.460090000000     0.976740000000     0.164950000000     0.0473898  
H142     H      0.422540000000     0.009240000000     0.130870000000     0.0485266  
H143     H      0.414650000000     0.900940000000     0.153000000000     0.0488656  
H144     H      0.377100000000     0.933430000000     0.118920000000     0.0476196  
H145     H      0.151660000000     0.720400000000     0.572600000000     0.104961   
H146     H      0.185530000000     0.689790000000     0.711270000000     0.105001   
H147     H      0.124600000000     0.679480000000     0.655730000000     0.0497126  
H148     H      0.173840000000     0.650230000000     0.635440000000     0.0469903  
H149     H      0.163350000000     0.759960000000     0.648430000000     0.0469884  
H150     H      0.212590000000     0.730700000000     0.628130000000     0.0496909  
H151     H      0.116280000000     0.654320000000     0.855870000000     0.105196   
H152     H      0.220920000000     0.755850000000     0.927990000000     0.105014   
H153     H      0.135150000000     0.739600000000     0.870880000000     0.0427482  
H154     H      0.138080000000     0.726460000000     0.927240000000     0.0549682  
H155     H      0.199110000000     0.683710000000     0.856630000000     0.0551234  
H156     H      0.202040000000     0.670580000000     0.912980000000     0.0426432  
H157     H      0.157830000000     0.940720000000     0.713010000000     0.104336   
H158     H      0.179360000000     0.969470000000     0.570860000000     0.104361   
H159     H      0.205680000000     0.918380000000     0.629280000000     0.0506288  
H160     H      0.146680000000     0.905400000000     0.636160000000     0.0447216  
H161     H      0.190510000000     0.004790000000     0.647710000000     0.0443232  
H162     H      0.131510000000     0.991810000000     0.654580000000     0.0506241  
H163     H      0.456010000000     0.735310000000     0.585130000000     0.106426   
H164     H      0.381180000000     0.674870000000     0.698730000000     0.106453   
H165     H      0.427440000000     0.650530000000     0.636410000000     0.048673   
H166     H      0.462640000000     0.691530000000     0.665420000000     0.0465338  
H167     H      0.374540000000     0.718650000000     0.618440000000     0.0465433  
H168     H      0.409740000000     0.759650000000     0.647450000000     0.0486755  
H169     H      0.470760000000     0.898790000000     0.935460000000     0.109187   
H170     H      0.366430000000     0.011380000000     0.848420000000     0.109086   
H171     H      0.458060000000     0.961380000000     0.860370000000     0.0524477  
H172     H      0.430180000000     0.905430000000     0.871910000000     0.0543368  
H173     H      0.407010000000     0.004750000000     0.911970000000     0.053904   
H174     H      0.379130000000     0.948790000000     0.923500000000     0.0521015  
H175     H      0.447950000000     0.770960000000     0.852540000000     0.104602   
H176     H      0.389240000000     0.639230000000     0.931320000000     0.104514   
H177     H      0.397930000000     0.675920000000     0.854420000000     0.0523442  
H178     H      0.457320000000     0.685960000000     0.863900000000     0.0433597  
H179     H      0.379870000000     0.724220000000     0.919960000000     0.0432156  
H180     H      0.439260000000     0.734260000000     0.929440000000     0.0522152  
H181     H      0.109900000000     0.995650000000     0.849350000000     0.108452   
H182     H      0.227280000000     0.914520000000     0.934520000000     0.108141   
H183     H      0.135140000000     0.922420000000     0.916110000000     0.0531569  
H184     H      0.146560000000     0.921360000000     0.859200000000     0.0444425  
H185     H      0.190620000000     0.988810000000     0.924670000000     0.044347   
H186     H      0.202040000000     0.987760000000     0.867760000000     0.0532772  
H187     H      0.459530000000     0.924050000000     0.586860000000     0.105276   
H188     H      0.377660000000     0.986130000000     0.697010000000     0.105314   
H189     H      0.460090000000     0.976740000000     0.664950000000     0.0474074  
H190     H      0.422540000000     0.009240000000     0.630870000000     0.0484765  
H191     H      0.414650000000     0.900940000000     0.653000000000     0.0488086  
H192     H      0.377100000000     0.933430000000     0.618910000000     0.0474607  
H193     H      0.651660000000     0.220390000000     0.072590000000     0.105198   
H194     H      0.685530000000     0.189790000000     0.211270000000     0.104941   
H195     H      0.624600000000     0.179480000000     0.155740000000     0.0496662  
H196     H      0.673840000000     0.150220000000     0.135440000000     0.0470004  
H197     H      0.663350000000     0.259960000000     0.148430000000     0.0470341  
H198     H      0.712590000000     0.230700000000     0.128130000000     0.0497916  
H199     H      0.616270000000     0.154320000000     0.355870000000     0.105156   
H200     H      0.720920000000     0.255850000000     0.427990000000     0.105188   
H201     H      0.635150000000     0.239600000000     0.370880000000     0.0427649  
H202     H      0.638080000000     0.226460000000     0.427230000000     0.0551253  
H203     H      0.699110000000     0.183710000000     0.356630000000     0.0551038  
H204     H      0.702040000000     0.170580000000     0.412980000000     0.0427417  
H205     H      0.657830000000     0.440720000000     0.213010000000     0.104282   
H206     H      0.679360000000     0.469470000000     0.070860000000     0.10451    
H207     H      0.705680000000     0.418370000000     0.129280000000     0.0506767  
H208     H      0.646680000000     0.405400000000     0.136160000000     0.0447458  
H209     H      0.690510000000     0.504790000000     0.147710000000     0.0447065  
H210     H      0.631510000000     0.491810000000     0.154580000000     0.0505776  
H211     H      0.956010000000     0.235310000000     0.085130000000     0.106596   
H212     H      0.881180000000     0.174870000000     0.198730000000     0.106437   
H213     H      0.927440000000     0.150530000000     0.136410000000     0.048679   
H214     H      0.962640000000     0.191530000000     0.165420000000     0.0464879  
H215     H      0.874540000000     0.218650000000     0.118450000000     0.0466861  
H216     H      0.909740000000     0.259650000000     0.147450000000     0.0487266  
H217     H      0.970760000000     0.398790000000     0.435460000000     0.109252   
H218     H      0.866430000000     0.511380000000     0.348420000000     0.10935    
H219     H      0.958060000000     0.461380000000     0.360370000000     0.0522686  
H220     H      0.930180000000     0.405430000000     0.371910000000     0.0542862  
H221     H      0.907010000000     0.504750000000     0.411970000000     0.0543093  
H222     H      0.879130000000     0.448790000000     0.423510000000     0.0523039  
H223     H      0.947950000000     0.270960000000     0.352540000000     0.104571   
H224     H      0.889240000000     0.139230000000     0.431320000000     0.104593   
H225     H      0.897930000000     0.175920000000     0.354430000000     0.0523234  
H226     H      0.957320000000     0.185960000000     0.363890000000     0.0433055  
H227     H      0.879870000000     0.224220000000     0.419960000000     0.0433388  
H228     H      0.939260000000     0.234260000000     0.429430000000     0.052339   
H229     H      0.609900000000     0.495650000000     0.349350000000     0.108335   
H230     H      0.727280000000     0.414520000000     0.434520000000     0.108313   
H231     H      0.635140000000     0.422420000000     0.416110000000     0.0532312  
H232     H      0.646560000000     0.421360000000     0.359200000000     0.0444118  
H233     H      0.690620000000     0.488810000000     0.424670000000     0.0444324  
H234     H      0.702040000000     0.487760000000     0.367760000000     0.0532379  
H235     H      0.959530000000     0.424050000000     0.086860000000     0.105356   
H236     H      0.877660000000     0.486130000000     0.197010000000     0.105223   
H237     H      0.960090000000     0.476740000000     0.164950000000     0.0473747  
H238     H      0.922540000000     0.509240000000     0.130870000000     0.0488519  
H239     H      0.914650000000     0.400940000000     0.153000000000     0.048841   
H240     H      0.877100000000     0.433440000000     0.118920000000     0.0475548  
H241     H      0.651660000000     0.220390000000     0.572600000000     0.104988   
H242     H      0.685530000000     0.189790000000     0.711270000000     0.104939   
H243     H      0.624600000000     0.179480000000     0.655730000000     0.0496755  
H244     H      0.673840000000     0.150220000000     0.635440000000     0.0469435  
H245     H      0.663350000000     0.259960000000     0.648430000000     0.0469814  
H246     H      0.712590000000     0.230700000000     0.628130000000     0.0496814  
H247     H      0.616270000000     0.154320000000     0.855870000000     0.105154   
H248     H      0.720920000000     0.255850000000     0.927990000000     0.105012   
H249     H      0.635150000000     0.239600000000     0.870880000000     0.0427341  
H250     H      0.638080000000     0.226460000000     0.927240000000     0.0549582  
H251     H      0.699110000000     0.183710000000     0.856630000000     0.0550959  
H252     H      0.702040000000     0.170580000000     0.912980000000     0.0426107  
H253     H      0.657830000000     0.440720000000     0.713010000000     0.104284   
H254     H      0.679360000000     0.469470000000     0.570860000000     0.104293   
H255     H      0.705680000000     0.418370000000     0.629280000000     0.0505749  
H256     H      0.646680000000     0.405400000000     0.636160000000     0.0446725  
H257     H      0.690510000000     0.504790000000     0.647710000000     0.0446708  
H258     H      0.631510000000     0.491810000000     0.654580000000     0.050585   
H259     H      0.956010000000     0.235310000000     0.585130000000     0.106431   
H260     H      0.881180000000     0.174870000000     0.698730000000     0.106419   
H261     H      0.927440000000     0.150530000000     0.636410000000     0.0486305  
H262     H      0.962640000000     0.191530000000     0.665420000000     0.0464994  
H263     H      0.874540000000     0.218650000000     0.618440000000     0.0465276  
H264     H      0.909740000000     0.259650000000     0.647450000000     0.0486641  
H265     H      0.970760000000     0.398790000000     0.935460000000     0.109128   
H266     H      0.866430000000     0.511380000000     0.848420000000     0.109336   
H267     H      0.958060000000     0.461380000000     0.860370000000     0.0523116  
H268     H      0.930180000000     0.405430000000     0.871910000000     0.0543042  
H269     H      0.907010000000     0.504750000000     0.911970000000     0.0542068  
H270     H      0.879130000000     0.448790000000     0.923500000000     0.0521411  
H271     H      0.947950000000     0.270960000000     0.852540000000     0.104546   
H272     H      0.889240000000     0.139230000000     0.931320000000     0.104472   
H273     H      0.897930000000     0.175920000000     0.854420000000     0.0523198  
H274     H      0.957320000000     0.185960000000     0.863900000000     0.043316   
H275     H      0.879870000000     0.224220000000     0.919960000000     0.0432074  
H276     H      0.939260000000     0.234260000000     0.929440000000     0.0522012  
H277     H      0.609900000000     0.495650000000     0.849350000000     0.108384   
H278     H      0.727280000000     0.414520000000     0.934520000000     0.108115   
H279     H      0.635140000000     0.422420000000     0.916110000000     0.053111   
H280     H      0.646560000000     0.421360000000     0.859200000000     0.0444012  
H281     H      0.690620000000     0.488810000000     0.924670000000     0.0442628  
H282     H      0.702040000000     0.487760000000     0.867760000000     0.0532111  
H283     H      0.959530000000     0.424050000000     0.586860000000     0.105222   
H284     H      0.877660000000     0.486130000000     0.697010000000     0.105211   
H285     H      0.960090000000     0.476740000000     0.664950000000     0.0473924  
H286     H      0.922540000000     0.509240000000     0.630870000000     0.0488024  
H287     H      0.914650000000     0.400940000000     0.653000000000     0.048784   
H288     H      0.877100000000     0.433440000000     0.618910000000     0.0473957  
H289     H      0.651660000000     0.720400000000     0.072590000000     0.105166   
H290     H      0.685530000000     0.689790000000     0.211270000000     0.104997   
H291     H      0.624600000000     0.679480000000     0.155740000000     0.0496893  
H292     H      0.673840000000     0.650230000000     0.135440000000     0.047046   
H293     H      0.663350000000     0.759960000000     0.148430000000     0.0470322  
H294     H      0.712590000000     0.730700000000     0.128130000000     0.049801   
H295     H      0.616270000000     0.654320000000     0.355870000000     0.105187   
H296     H      0.720920000000     0.755850000000     0.427990000000     0.105189   
H297     H      0.635150000000     0.739600000000     0.370880000000     0.0427649  
H298     H      0.638080000000     0.726460000000     0.427230000000     0.0551271  
H299     H      0.699110000000     0.683710000000     0.356630000000     0.0551319  
H300     H      0.702040000000     0.670580000000     0.412980000000     0.0427759  
H301     H      0.657830000000     0.940720000000     0.213010000000     0.104324   
H302     H      0.679360000000     0.969470000000     0.070860000000     0.104576   
H303     H      0.705680000000     0.918380000000     0.129280000000     0.050729   
H304     H      0.646680000000     0.905400000000     0.136160000000     0.0447836  
H305     H      0.690510000000     0.004790000000     0.147710000000     0.0443554  
H306     H      0.631510000000     0.991810000000     0.154580000000     0.0506058  
H307     H      0.956010000000     0.735310000000     0.085130000000     0.106559   
H308     H      0.881180000000     0.674870000000     0.198730000000     0.106465   
H309     H      0.927440000000     0.650530000000     0.136410000000     0.0487063  
H310     H      0.962640000000     0.691530000000     0.165420000000     0.0464975  
H311     H      0.874540000000     0.718650000000     0.118450000000     0.0466989  
H312     H      0.909740000000     0.759650000000     0.147450000000     0.0487287  
H313     H      0.970760000000     0.898790000000     0.435460000000     0.109262   
H314     H      0.866430000000     0.011380000000     0.348420000000     0.10909    
H315     H      0.958060000000     0.961380000000     0.360370000000     0.052374   
H316     H      0.930180000000     0.905430000000     0.371910000000     0.0543047  
H317     H      0.907010000000     0.004750000000     0.411970000000     0.0540041  
H318     H      0.879130000000     0.948790000000     0.423510000000     0.0522677  
H319     H      0.947950000000     0.770960000000     0.352540000000     0.104574   
H320     H      0.889240000000     0.639230000000     0.431320000000     0.104629   
H321     H      0.897930000000     0.675920000000     0.354430000000     0.0523457  
H322     H      0.957320000000     0.685960000000     0.363890000000     0.0433188  
H323     H      0.879870000000     0.724220000000     0.419960000000     0.0433449  
H324     H      0.939260000000     0.734260000000     0.429430000000     0.052337   
H325     H      0.609900000000     0.995650000000     0.349350000000     0.108382   
H326     H      0.727280000000     0.914520000000     0.434520000000     0.108338   
H327     H      0.635140000000     0.922420000000     0.416110000000     0.0532703  
H328     H      0.646560000000     0.921360000000     0.359200000000     0.0444444  
H329     H      0.690620000000     0.988810000000     0.424670000000     0.0445175  
H330     H      0.702040000000     0.987760000000     0.367760000000     0.0533043  
H331     H      0.959530000000     0.924050000000     0.086860000000     0.105377   
H332     H      0.877660000000     0.986130000000     0.197010000000     0.105313   
H333     H      0.960090000000     0.976740000000     0.164950000000     0.0473651  
H334     H      0.922540000000     0.009240000000     0.130870000000     0.0485126  
H335     H      0.914650000000     0.900940000000     0.153000000000     0.0488588  
H336     H      0.877100000000     0.933430000000     0.118920000000     0.0476159  
H337     H      0.651660000000     0.720400000000     0.572600000000     0.104956   
H338     H      0.685530000000     0.689790000000     0.711270000000     0.104995   
H339     H      0.624600000000     0.679480000000     0.655730000000     0.0496986  
H340     H      0.673840000000     0.650230000000     0.635440000000     0.0469892  
H341     H      0.663350000000     0.759960000000     0.648430000000     0.0469795  
H342     H      0.712590000000     0.730700000000     0.628130000000     0.0496908  
H343     H      0.616270000000     0.654320000000     0.855870000000     0.105185   
H344     H      0.720920000000     0.755850000000     0.927990000000     0.105013   
H345     H      0.635150000000     0.739600000000     0.870880000000     0.042734   
H346     H      0.638080000000     0.726460000000     0.927240000000     0.05496    
H347     H      0.699110000000     0.683710000000     0.856630000000     0.055124   
H348     H      0.702040000000     0.670580000000     0.912980000000     0.042645   
H349     H      0.657830000000     0.940720000000     0.713010000000     0.104326   
H350     H      0.679360000000     0.969470000000     0.570860000000     0.10436    
H351     H      0.705680000000     0.918380000000     0.629280000000     0.0506273  
H352     H      0.646680000000     0.905400000000     0.636160000000     0.0447104  
H353     H      0.690510000000     0.004790000000     0.647710000000     0.0443192  
H354     H      0.631510000000     0.991810000000     0.654580000000     0.0506133  
H355     H      0.956010000000     0.735310000000     0.585130000000     0.106394   
H356     H      0.881180000000     0.674870000000     0.698730000000     0.106447   
H357     H      0.927440000000     0.650530000000     0.636410000000     0.0486578  
H358     H      0.962640000000     0.691530000000     0.665420000000     0.046509   
H359     H      0.874540000000     0.718650000000     0.618440000000     0.0465404  
H360     H      0.909740000000     0.759650000000     0.647450000000     0.0486662  
H361     H      0.970760000000     0.898790000000     0.935460000000     0.109138   
H362     H      0.866430000000     0.011380000000     0.848420000000     0.109076   
H363     H      0.958060000000     0.961380000000     0.860370000000     0.0524171  
H364     H      0.930180000000     0.905430000000     0.871910000000     0.0543226  
H365     H      0.907010000000     0.004750000000     0.911970000000     0.0539017  
H366     H      0.879130000000     0.948790000000     0.923500000000     0.0521049  
H367     H      0.947950000000     0.770960000000     0.852540000000     0.104549   
H368     H      0.889240000000     0.639230000000     0.931320000000     0.104508   
H369     H      0.897930000000     0.675920000000     0.854420000000     0.0523421  
H370     H      0.957320000000     0.685960000000     0.863900000000     0.0433293  
H371     H      0.879870000000     0.724220000000     0.919960000000     0.0432135  
H372     H      0.939260000000     0.734260000000     0.929440000000     0.0521992  
H373     H      0.609900000000     0.995650000000     0.849350000000     0.108431   
H374     H      0.727280000000     0.914520000000     0.934520000000     0.10814    
H375     H      0.635140000000     0.922420000000     0.916110000000     0.05315    
H376     H      0.646560000000     0.921360000000     0.859200000000     0.0444338  
H377     H      0.690620000000     0.988810000000     0.924670000000     0.0443479  
H378     H      0.702040000000     0.987760000000     0.867760000000     0.0532776  
H379     H      0.959530000000     0.924050000000     0.586860000000     0.105243   
H380     H      0.877660000000     0.986130000000     0.697010000000     0.105301   
H381     H      0.960090000000     0.976740000000     0.664950000000     0.0473828  
H382     H      0.922540000000     0.009240000000     0.630870000000     0.0484626  
H383     H      0.914650000000     0.900940000000     0.653000000000     0.048802   
H384     H      0.877100000000     0.933430000000     0.618910000000     0.047457   
N1       N      0.138420000000     0.191730000000     0.090170000000    -0.211885   
N2       N      0.198770000000     0.218460000000     0.193690000000    -0.211909   
N3       N      0.115190000000     0.169240000000     0.386540000000    -0.211332   
N4       N      0.222000000000     0.240930000000     0.397320000000    -0.211349   
N5       N      0.180480000000     0.422690000000     0.193050000000    -0.21312    
N6       N      0.156710000000     0.487490000000     0.090820000000    -0.213123   
N7       N      0.462350000000     0.201660000000     0.098730000000    -0.212955   
N8       N      0.374830000000     0.208520000000     0.185130000000    -0.213013   
N9       N      0.468500000000     0.433280000000     0.422440000000    -0.215101   
N10      N      0.368690000000     0.476900000000     0.361430000000    -0.215133   
N11      N      0.421170000000     0.247570000000     0.346470000000    -0.214464   
N12      N      0.416030000000     0.162610000000     0.437390000000    -0.214468   
N13      N      0.113810000000     0.483540000000     0.380800000000    -0.213199   
N14      N      0.223370000000     0.426640000000     0.403070000000    -0.213126   
N15      N      0.464300000000     0.458440000000     0.099480000000    -0.210727   
N16      N      0.372890000000     0.451740000000     0.184390000000    -0.210711   
N17      N      0.138420000000     0.191730000000     0.590180000000    -0.211914   
N18      N      0.198770000000     0.218460000000     0.693690000000    -0.211919   
N19      N      0.115190000000     0.169240000000     0.886540000000    -0.211379   
N20      N      0.222000000000     0.240930000000     0.897320000000    -0.211357   
N21      N      0.180480000000     0.422690000000     0.693050000000    -0.213132   
N22      N      0.156710000000     0.487490000000     0.590820000000    -0.21313    
N23      N      0.462350000000     0.201660000000     0.598730000000    -0.213008   
N24      N      0.374830000000     0.208520000000     0.685130000000    -0.213006   
N25      N      0.468500000000     0.433280000000     0.922450000000    -0.215192   
N26      N      0.368690000000     0.476900000000     0.861430000000    -0.215177   
N27      N      0.421170000000     0.247570000000     0.846470000000    -0.214469   
N28      N      0.416030000000     0.162610000000     0.937390000000    -0.214519   
N29      N      0.113810000000     0.483540000000     0.880790000000    -0.213228   
N30      N      0.223370000000     0.426640000000     0.903070000000    -0.213139   
N31      N      0.464300000000     0.458440000000     0.599470000000    -0.210809   
N32      N      0.372890000000     0.451740000000     0.684390000000    -0.210732   
N33      N      0.138420000000     0.691730000000     0.090170000000    -0.211839   
N34      N      0.198770000000     0.718450000000     0.193690000000    -0.211911   
N35      N      0.115190000000     0.669240000000     0.386540000000    -0.211329   
N36      N      0.222000000000     0.740930000000     0.397320000000    -0.211324   
N37      N      0.180480000000     0.922690000000     0.193050000000    -0.213091   
N38      N      0.156710000000     0.987490000000     0.090820000000    -0.212958   
N39      N      0.462350000000     0.701650000000     0.098730000000    -0.21295    
N40      N      0.374830000000     0.708520000000     0.185130000000    -0.213013   
N41      N      0.468500000000     0.933280000000     0.422440000000    -0.215124   
N42      N      0.368690000000     0.976900000000     0.361430000000    -0.214962   
N43      N      0.421170000000     0.747570000000     0.346470000000    -0.21446    
N44      N      0.416030000000     0.662610000000     0.437390000000    -0.214499   
N45      N      0.113810000000     0.983530000000     0.380800000000    -0.21291    
N46      N      0.223370000000     0.926640000000     0.403070000000    -0.213118   
N47      N      0.464300000000     0.958440000000     0.099480000000    -0.210781   
N48      N      0.372890000000     0.951740000000     0.184390000000    -0.2107     
N49      N      0.138420000000     0.691730000000     0.590180000000    -0.211868   
N50      N      0.198770000000     0.718450000000     0.693690000000    -0.211921   
N51      N      0.115190000000     0.669240000000     0.886540000000    -0.211376   
N52      N      0.222000000000     0.740930000000     0.897320000000    -0.211332   
N53      N      0.180480000000     0.922690000000     0.693050000000    -0.213103   
N54      N      0.156710000000     0.987490000000     0.590820000000    -0.212965   
N55      N      0.462350000000     0.701650000000     0.598730000000    -0.213003   
N56      N      0.374830000000     0.708520000000     0.685130000000    -0.213006   
N57      N      0.468500000000     0.933280000000     0.922450000000    -0.215215   
N58      N      0.368690000000     0.976900000000     0.861430000000    -0.215005   
N59      N      0.421170000000     0.747570000000     0.846470000000    -0.214465   
N60      N      0.416030000000     0.662610000000     0.937390000000    -0.214551   
N61      N      0.113810000000     0.983530000000     0.880790000000    -0.21294    
N62      N      0.223370000000     0.926640000000     0.903070000000    -0.213131   
N63      N      0.464300000000     0.958440000000     0.599470000000    -0.210863   
N64      N      0.372890000000     0.951740000000     0.684390000000    -0.210721   
N65      N      0.638420000000     0.191730000000     0.090170000000    -0.211887   
N66      N      0.698770000000     0.218460000000     0.193690000000    -0.21191    
N67      N      0.615190000000     0.169240000000     0.386540000000    -0.211336   
N68      N      0.722000000000     0.240930000000     0.397320000000    -0.211349   
N69      N      0.680480000000     0.422690000000     0.193050000000    -0.213121   
N70      N      0.656710000000     0.487490000000     0.090820000000    -0.213125   
N71      N      0.962350000000     0.201660000000     0.098730000000    -0.212914   
N72      N      0.874830000000     0.208520000000     0.185130000000    -0.213014   
N73      N      0.968490000000     0.433280000000     0.422440000000    -0.215053   
N74      N      0.868690000000     0.476900000000     0.361430000000    -0.215117   
N75      N      0.921160000000     0.247570000000     0.346470000000    -0.214445   
N76      N      0.916030000000     0.162610000000     0.437390000000    -0.214482   
N77      N      0.613810000000     0.483540000000     0.380800000000    -0.213184   
N78      N      0.723370000000     0.426640000000     0.403070000000    -0.213125   
N79      N      0.964300000000     0.458440000000     0.099480000000    -0.210687   
N80      N      0.872890000000     0.451740000000     0.184390000000    -0.210681   
N81      N      0.638420000000     0.191730000000     0.590180000000    -0.211916   
N82      N      0.698770000000     0.218460000000     0.693690000000    -0.21192    
N83      N      0.615190000000     0.169240000000     0.886540000000    -0.211383   
N84      N      0.722000000000     0.240930000000     0.897320000000    -0.211357   
N85      N      0.680480000000     0.422690000000     0.693050000000    -0.213133   
N86      N      0.656710000000     0.487490000000     0.590820000000    -0.213133   
N87      N      0.962350000000     0.201660000000     0.598730000000    -0.212966   
N88      N      0.874830000000     0.208520000000     0.685130000000    -0.213008   
N89      N      0.968490000000     0.433280000000     0.922450000000    -0.215144   
N90      N      0.868690000000     0.476900000000     0.861430000000    -0.21516    
N91      N      0.921160000000     0.247570000000     0.846470000000    -0.21445    
N92      N      0.916030000000     0.162610000000     0.937390000000    -0.214534   
N93      N      0.613810000000     0.483540000000     0.880790000000    -0.213213   
N94      N      0.723370000000     0.426640000000     0.903070000000    -0.213139   
N95      N      0.964300000000     0.458440000000     0.599470000000    -0.21077    
N96      N      0.872890000000     0.451740000000     0.684390000000    -0.210702   
N97      N      0.638420000000     0.691730000000     0.090170000000    -0.211841   
N98      N      0.698770000000     0.718450000000     0.193690000000    -0.211912   
N99      N      0.615190000000     0.669240000000     0.386540000000    -0.211334   
N100     N      0.722000000000     0.740930000000     0.397320000000    -0.211324   
N101     N      0.680480000000     0.922690000000     0.193050000000    -0.213092   
N102     N      0.656710000000     0.987490000000     0.090820000000    -0.21296    
N103     N      0.962350000000     0.701650000000     0.098730000000    -0.212908   
N104     N      0.874830000000     0.708520000000     0.185130000000    -0.213014   
N105     N      0.968490000000     0.933280000000     0.422440000000    -0.215076   
N106     N      0.868690000000     0.976900000000     0.361430000000    -0.214945   
N107     N      0.921160000000     0.747570000000     0.346470000000    -0.214441   
N108     N      0.916030000000     0.662610000000     0.437390000000    -0.214514   
N109     N      0.613810000000     0.983530000000     0.380800000000    -0.212895   
N110     N      0.723370000000     0.926640000000     0.403070000000    -0.213117   
N111     N      0.964300000000     0.958440000000     0.099480000000    -0.210741   
N112     N      0.872890000000     0.951740000000     0.184390000000    -0.21067    
N113     N      0.638420000000     0.691730000000     0.590180000000    -0.21187    
N114     N      0.698770000000     0.718450000000     0.693690000000    -0.211922   
N115     N      0.615190000000     0.669240000000     0.886540000000    -0.21138    
N116     N      0.722000000000     0.740930000000     0.897320000000    -0.211332   
N117     N      0.680480000000     0.922690000000     0.693050000000    -0.213104   
N118     N      0.656710000000     0.987490000000     0.590820000000    -0.212967   
N119     N      0.962350000000     0.701650000000     0.598730000000    -0.212961   
N120     N      0.874830000000     0.708520000000     0.685130000000    -0.213007   
N121     N      0.968490000000     0.933280000000     0.922450000000    -0.215167   
N122     N      0.868690000000     0.976900000000     0.861430000000    -0.214988   
N123     N      0.921160000000     0.747570000000     0.846470000000    -0.214446   
N124     N      0.916030000000     0.662610000000     0.937390000000    -0.214566   
N125     N      0.613810000000     0.983530000000     0.880790000000    -0.212924   
N126     N      0.723370000000     0.926640000000     0.903070000000    -0.213131   
N127     N      0.964300000000     0.958440000000     0.599470000000    -0.210823   
N128     N      0.872890000000     0.951740000000     0.684390000000    -0.210691   
O1       O      0.514060000000     0.473220000000     0.045600000000    -0.358063   
O2       O      0.487020000000     0.170260000000     0.465540000000    -0.365776   
O3       O      0.501090000000     0.130800000000     0.093930000000    -0.366015   
O4       O      0.489540000000     0.511570000000     0.423920000000    -0.366773   
O5       O      0.506030000000     0.185360000000     0.041670000000    -0.365738   
O6       O      0.517560000000     0.460580000000     0.472070000000    -0.355993   
O7       O      0.460640000000     0.098790000000     0.447160000000    -0.388434   
O8       O      0.501430000000     0.529980000000     0.094610000000    -0.36982    
O9       O      0.092990000000     0.490280000000     0.451230000000    -0.363577   
O10      O      0.093240000000     0.175120000000     0.033760000000    -0.372467   
O11      O      0.094360000000     0.536380000000     0.093830000000    -0.370505   
O12      O      0.062700000000     0.113370000000     0.404880000000    -0.367371   
O13      O      0.084690000000     0.166990000000     0.453450000000    -0.381018   
O14      O      0.113830000000     0.500480000000     0.032870000000    -0.395097   
O15      O      0.062380000000     0.537700000000     0.401530000000    -0.359671   
O16      O      0.090040000000     0.128030000000     0.091630000000    -0.373082   
O17      O      0.524860000000     0.575610000000     0.007380000000    -0.596802   
O18      O      0.335750000000     0.380200000000     0.189250000000    -0.369849   
O19      O      0.376540000000     0.311390000000     0.336710000000    -0.388409   
O20      O      0.319630000000     0.449590000000     0.311800000000    -0.356095   
O21      O      0.331160000000     0.224820000000     0.242200000000    -0.36658    
O22      O      0.347640000000     0.398600000000     0.359950000000    -0.366781   
O23      O      0.336100000000     0.279380000000     0.189940000000    -0.366098   
O24      O      0.350170000000     0.239920000000     0.318320000000    -0.365695   
O25      O      0.323130000000     0.436960000000     0.238270000000    -0.35812    
O26      O      0.247150000000     0.282150000000     0.192230000000    -0.372984   
O27      O      0.274810000000     0.372470000000     0.382340000000    -0.359549   
O28      O      0.223350000000     0.409710000000     0.250990000000    -0.395312   
O29      O      0.252500000000     0.243180000000     0.330410000000    -0.380906   
O30      O      0.274490000000     0.296800000000     0.378990000000    -0.367288   
O31      O      0.242830000000     0.373800000000     0.190040000000    -0.370517   
O32      O      0.243950000000     0.235060000000     0.250110000000    -0.373323   
O33      O      0.244200000000     0.419890000000     0.332640000000    -0.363674   
O34      O      0.312320000000     0.334570000000     0.276480000000    -0.597852   
O35      O      0.514060000000     0.473220000000     0.545600000000    -0.358164   
O36      O      0.487020000000     0.170260000000     0.965540000000    -0.365824   
O37      O      0.501090000000     0.130800000000     0.593930000000    -0.366112   
O38      O      0.489540000000     0.511570000000     0.923930000000    -0.366967   
O39      O      0.506030000000     0.185360000000     0.541670000000    -0.366604   
O40      O      0.517560000000     0.460580000000     0.972070000000    -0.356839   
O41      O      0.460640000000     0.098790000000     0.947160000000    -0.388507   
O42      O      0.501430000000     0.529980000000     0.594610000000    -0.369801   
O43      O      0.092990000000     0.490280000000     0.951220000000    -0.364401   
O44      O      0.093240000000     0.175120000000     0.533760000000    -0.373336   
O45      O      0.094360000000     0.536380000000     0.593830000000    -0.370433   
O46      O      0.062700000000     0.113370000000     0.904880000000    -0.367323   
O47      O      0.084690000000     0.166990000000     0.953450000000    -0.380979   
O48      O      0.113830000000     0.500480000000     0.532870000000    -0.395284   
O49      O      0.062380000000     0.537700000000     0.901530000000    -0.359757   
O50      O      0.090040000000     0.128030000000     0.591630000000    -0.373151   
O51      O      0.524860000000     0.575610000000     0.507380000000    -0.597818   
O52      O      0.335750000000     0.380200000000     0.689250000000    -0.369888   
O53      O      0.376540000000     0.311390000000     0.836700000000    -0.388437   
O54      O      0.319630000000     0.449590000000     0.811800000000    -0.356121   
O55      O      0.331160000000     0.224820000000     0.742200000000    -0.366665   
O56      O      0.347640000000     0.398600000000     0.859940000000    -0.366903   
O57      O      0.336100000000     0.279380000000     0.689940000000    -0.366113   
O58      O      0.350170000000     0.239920000000     0.818320000000    -0.365705   
O59      O      0.323130000000     0.436960000000     0.738270000000    -0.358123   
O60      O      0.247150000000     0.282150000000     0.692230000000    -0.37302    
O61      O      0.274810000000     0.372470000000     0.882340000000    -0.359627   
O62      O      0.223350000000     0.409710000000     0.750990000000    -0.395315   
O63      O      0.252500000000     0.243180000000     0.830410000000    -0.38091    
O64      O      0.274490000000     0.296800000000     0.878990000000    -0.367364   
O65      O      0.242830000000     0.373800000000     0.690040000000    -0.370558   
O66      O      0.243950000000     0.235060000000     0.750110000000    -0.373325   
O67      O      0.244200000000     0.419890000000     0.832640000000    -0.363675   
O68      O      0.312320000000     0.334570000000     0.776480000000    -0.597835   
O69      O      0.514060000000     0.973220000000     0.045600000000    -0.357931   
O70      O      0.487020000000     0.670260000000     0.465540000000    -0.36582    
O71      O      0.501090000000     0.630800000000     0.093930000000    -0.36601    
O72      O      0.489540000000     0.011570000000     0.423920000000    -0.367099   
O73      O      0.506030000000     0.685360000000     0.041670000000    -0.365749   
O74      O      0.517560000000     0.960580000000     0.472070000000    -0.355905   
O75      O      0.460640000000     0.598800000000     0.447160000000    -0.388509   
O76      O      0.501430000000     0.029980000000     0.094610000000    -0.370226   
O77      O      0.092990000000     0.990290000000     0.451230000000    -0.363071   
O78      O      0.093240000000     0.675120000000     0.033760000000    -0.37246    
O79      O      0.094360000000     0.036380000000     0.093830000000    -0.370525   
O80      O      0.062700000000     0.613370000000     0.404880000000    -0.367339   
O81      O      0.084690000000     0.666990000000     0.453450000000    -0.381015   
O82      O      0.113830000000     0.000470000000     0.032870000000    -0.395104   
O83      O      0.062380000000     0.037700000000     0.401530000000    -0.359574   
O84      O      0.090040000000     0.628030000000     0.091630000000    -0.373059   
O85      O      0.524860000000     0.075610000000     0.007380000000    -0.596779   
O86      O      0.335750000000     0.880200000000     0.189250000000    -0.369818   
O87      O      0.376540000000     0.811390000000     0.336710000000    -0.388406   
O88      O      0.319630000000     0.949600000000     0.311800000000    -0.355957   
O89      O      0.331160000000     0.724820000000     0.242200000000    -0.366568   
O90      O      0.347640000000     0.898600000000     0.359950000000    -0.36677    
O91      O      0.336100000000     0.779380000000     0.189940000000    -0.366135   
O92      O      0.350170000000     0.739920000000     0.318320000000    -0.365679   
O93      O      0.323130000000     0.936950000000     0.238270000000    -0.358145   
O94      O      0.247150000000     0.782150000000     0.192230000000    -0.373013   
O95      O      0.274810000000     0.872470000000     0.382340000000    -0.359543   
O96      O      0.223350000000     0.909710000000     0.250990000000    -0.395283   
O97      O      0.252500000000     0.743180000000     0.330410000000    -0.380871   
O98      O      0.274490000000     0.796800000000     0.378990000000    -0.367343   
O99      O      0.242830000000     0.873800000000     0.190040000000    -0.370475   
O100     O      0.243950000000     0.735060000000     0.250110000000    -0.373306   
O101     O      0.244200000000     0.919890000000     0.332640000000    -0.363662   
O102     O      0.312320000000     0.834570000000     0.276480000000    -0.597851   
O103     O      0.514060000000     0.973220000000     0.545600000000    -0.358031   
O104     O      0.487020000000     0.670260000000     0.965540000000    -0.365869   
O105     O      0.501090000000     0.630800000000     0.593930000000    -0.366107   
O106     O      0.489540000000     0.011570000000     0.923930000000    -0.367294   
O107     O      0.506030000000     0.685360000000     0.541670000000    -0.366615   
O108     O      0.517560000000     0.960580000000     0.972070000000    -0.35675    
O109     O      0.460640000000     0.598800000000     0.947160000000    -0.388581   
O110     O      0.501430000000     0.029980000000     0.594610000000    -0.370207   
O111     O      0.092990000000     0.990290000000     0.951220000000    -0.363895   
O112     O      0.093240000000     0.675120000000     0.533760000000    -0.373329   
O113     O      0.094360000000     0.036380000000     0.593830000000    -0.370453   
O114     O      0.062700000000     0.613370000000     0.904880000000    -0.367291   
O115     O      0.084690000000     0.666990000000     0.953450000000    -0.380977   
O116     O      0.113830000000     0.000470000000     0.532870000000    -0.395291   
O117     O      0.062380000000     0.037700000000     0.901530000000    -0.35966    
O118     O      0.090040000000     0.628030000000     0.591630000000    -0.373129   
O119     O      0.524860000000     0.075610000000     0.507380000000    -0.597796   
O120     O      0.335750000000     0.880200000000     0.689250000000    -0.369857   
O121     O      0.376540000000     0.811390000000     0.836700000000    -0.388434   
O122     O      0.319630000000     0.949600000000     0.811800000000    -0.355983   
O123     O      0.331160000000     0.724820000000     0.742200000000    -0.366653   
O124     O      0.347640000000     0.898600000000     0.859940000000    -0.366892   
O125     O      0.336100000000     0.779380000000     0.689940000000    -0.36615    
O126     O      0.350170000000     0.739920000000     0.818320000000    -0.365689   
O127     O      0.323130000000     0.936950000000     0.738270000000    -0.358148   
O128     O      0.247150000000     0.782150000000     0.692230000000    -0.373049   
O129     O      0.274810000000     0.872470000000     0.882340000000    -0.359621   
O130     O      0.223350000000     0.909710000000     0.750990000000    -0.395287   
O131     O      0.252500000000     0.743180000000     0.830410000000    -0.380874   
O132     O      0.274490000000     0.796800000000     0.878990000000    -0.367419   
O133     O      0.242830000000     0.873800000000     0.690040000000    -0.370515   
O134     O      0.243950000000     0.735060000000     0.750110000000    -0.373308   
O135     O      0.244200000000     0.919890000000     0.832640000000    -0.363662   
O136     O      0.312320000000     0.834570000000     0.776480000000    -0.597834   
O137     O      0.014060000000     0.473220000000     0.045600000000    -0.35789    
O138     O      0.987020000000     0.170260000000     0.465540000000    -0.36587    
O139     O      0.001090000000     0.130800000000     0.093930000000    -0.365835   
O140     O      0.989540000000     0.511570000000     0.423920000000    -0.366819   
O141     O      0.006030000000     0.185360000000     0.041670000000    -0.365549   
O142     O      0.017560000000     0.460580000000     0.472070000000    -0.355853   
O143     O      0.960650000000     0.098790000000     0.447160000000    -0.388568   
O144     O      0.001430000000     0.529980000000     0.094610000000    -0.369638   
O145     O      0.592990000000     0.490280000000     0.451230000000    -0.363552   
O146     O      0.593240000000     0.175120000000     0.033760000000    -0.372466   
O147     O      0.594360000000     0.536380000000     0.093830000000    -0.370516   
O148     O      0.562700000000     0.113370000000     0.404880000000    -0.367381   
O149     O      0.584690000000     0.166990000000     0.453450000000    -0.381022   
O150     O      0.613830000000     0.500480000000     0.032870000000    -0.395102   
O151     O      0.562370000000     0.537700000000     0.401530000000    -0.359631   
O152     O      0.590040000000     0.128030000000     0.091630000000    -0.373089   
O153     O      0.024860000000     0.575610000000     0.007380000000    -0.596785   
O154     O      0.835750000000     0.380200000000     0.189250000000    -0.369875   
O155     O      0.876540000000     0.311390000000     0.336710000000    -0.388457   
O156     O      0.819620000000     0.449590000000     0.311800000000    -0.356052   
O157     O      0.831160000000     0.224820000000     0.242200000000    -0.366579   
O158     O      0.847640000000     0.398600000000     0.359950000000    -0.366753   
O159     O      0.836100000000     0.279380000000     0.189940000000    -0.366098   
O160     O      0.850170000000     0.239920000000     0.318320000000    -0.365785   
O161     O      0.823130000000     0.436960000000     0.238270000000    -0.358175   
O162     O      0.747150000000     0.282150000000     0.192230000000    -0.372985   
O163     O      0.774810000000     0.372470000000     0.382340000000    -0.359548   
O164     O      0.723350000000     0.409710000000     0.250990000000    -0.395318   
O165     O      0.752500000000     0.243180000000     0.330410000000    -0.380908   
O166     O      0.774490000000     0.296800000000     0.378990000000    -0.367289   
O167     O      0.742830000000     0.373800000000     0.190040000000    -0.370522   
O168     O      0.743950000000     0.235060000000     0.250110000000    -0.373326   
O169     O      0.744200000000     0.419890000000     0.332640000000    -0.36367    
O170     O      0.812320000000     0.334570000000     0.276480000000    -0.597857   
O171     O      0.014060000000     0.473220000000     0.545600000000    -0.357991   
O172     O      0.987020000000     0.170260000000     0.965540000000    -0.365918   
O173     O      0.001090000000     0.130800000000     0.593930000000    -0.365932   
O174     O      0.989540000000     0.511570000000     0.923930000000    -0.367014   
O175     O      0.006030000000     0.185360000000     0.541670000000    -0.366416   
O176     O      0.017560000000     0.460580000000     0.972070000000    -0.356699   
O177     O      0.960650000000     0.098790000000     0.947160000000    -0.38864    
O178     O      0.001430000000     0.529980000000     0.594610000000    -0.369619   
O179     O      0.592990000000     0.490280000000     0.951220000000    -0.364375   
O180     O      0.593240000000     0.175120000000     0.533760000000    -0.373335   
O181     O      0.594360000000     0.536380000000     0.593830000000    -0.370444   
O182     O      0.562700000000     0.113370000000     0.904880000000    -0.367332   
O183     O      0.584690000000     0.166990000000     0.953450000000    -0.380983   
O184     O      0.613830000000     0.500480000000     0.532870000000    -0.395288   
O185     O      0.562370000000     0.537700000000     0.901530000000    -0.359717   
O186     O      0.590040000000     0.128030000000     0.591630000000    -0.373159   
O187     O      0.024860000000     0.575610000000     0.507380000000    -0.597801   
O188     O      0.835750000000     0.380200000000     0.689250000000    -0.369914   
O189     O      0.876540000000     0.311390000000     0.836700000000    -0.388485   
O190     O      0.819620000000     0.449590000000     0.811800000000    -0.356078   
O191     O      0.831160000000     0.224820000000     0.742200000000    -0.366664   
O192     O      0.847640000000     0.398600000000     0.859940000000    -0.366875   
O193     O      0.836100000000     0.279380000000     0.689940000000    -0.366113   
O194     O      0.850170000000     0.239920000000     0.818320000000    -0.365795   
O195     O      0.823130000000     0.436960000000     0.738270000000    -0.358178   
O196     O      0.747150000000     0.282150000000     0.692230000000    -0.37302    
O197     O      0.774810000000     0.372470000000     0.882340000000    -0.359626   
O198     O      0.723350000000     0.409710000000     0.750990000000    -0.395321   
O199     O      0.752500000000     0.243180000000     0.830410000000    -0.380911   
O200     O      0.774490000000     0.296800000000     0.878990000000    -0.367365   
O201     O      0.742830000000     0.373800000000     0.690040000000    -0.370562   
O202     O      0.743950000000     0.235060000000     0.750110000000    -0.373328   
O203     O      0.744200000000     0.419890000000     0.832640000000    -0.36367    
O204     O      0.812320000000     0.334570000000     0.776480000000    -0.59784    
O205     O      0.014060000000     0.973220000000     0.045600000000    -0.357757   
O206     O      0.987020000000     0.670260000000     0.465540000000    -0.365915   
O207     O      0.001090000000     0.630800000000     0.093930000000    -0.365829   
O208     O      0.989540000000     0.011570000000     0.423920000000    -0.367146   
O209     O      0.006030000000     0.685360000000     0.041670000000    -0.36556    
O210     O      0.017560000000     0.960580000000     0.472070000000    -0.355764   
O211     O      0.960650000000     0.598800000000     0.447160000000    -0.388642   
O212     O      0.001430000000     0.029980000000     0.094610000000    -0.370044   
O213     O      0.592990000000     0.990290000000     0.451230000000    -0.363046   
O214     O      0.593240000000     0.675120000000     0.033760000000    -0.372459   
O215     O      0.594360000000     0.036380000000     0.093830000000    -0.370536   
O216     O      0.562700000000     0.613370000000     0.404880000000    -0.367349   
O217     O      0.584690000000     0.666990000000     0.453450000000    -0.38102    
O218     O      0.613830000000     0.000470000000     0.032870000000    -0.395109   
O219     O      0.562370000000     0.037700000000     0.401530000000    -0.359534   
O220     O      0.590040000000     0.628030000000     0.091630000000    -0.373067   
O221     O      0.024860000000     0.075610000000     0.007380000000    -0.596762   
O222     O      0.835750000000     0.880200000000     0.189250000000    -0.369844   
O223     O      0.876540000000     0.811390000000     0.336710000000    -0.388454   
O224     O      0.819620000000     0.949600000000     0.311800000000    -0.355914   
O225     O      0.831160000000     0.724820000000     0.242200000000    -0.366567   
O226     O      0.847640000000     0.898600000000     0.359950000000    -0.366743   
O227     O      0.836100000000     0.779380000000     0.189940000000    -0.366134   
O228     O      0.850170000000     0.739920000000     0.318320000000    -0.36577    
O229     O      0.823130000000     0.936950000000     0.238270000000    -0.3582     
O230     O      0.747150000000     0.782150000000     0.192230000000    -0.373014   
O231     O      0.774810000000     0.872470000000     0.382340000000    -0.359542   
O232     O      0.723350000000     0.909710000000     0.250990000000    -0.395289   
O233     O      0.752500000000     0.743180000000     0.330410000000    -0.380872   
O234     O      0.774490000000     0.796800000000     0.378990000000    -0.367344   
O235     O      0.742830000000     0.873800000000     0.190040000000    -0.370479   
O236     O      0.743950000000     0.735060000000     0.250110000000    -0.373308   
O237     O      0.744200000000     0.919890000000     0.332640000000    -0.363657   
O238     O      0.812320000000     0.834570000000     0.276480000000    -0.597856   
O239     O      0.014060000000     0.973220000000     0.545600000000    -0.357858   
O240     O      0.987020000000     0.670260000000     0.965540000000    -0.365963   
O241     O      0.001090000000     0.630800000000     0.593930000000    -0.365927   
O242     O      0.989540000000     0.011570000000     0.923930000000    -0.36734    
O243     O      0.006030000000     0.685360000000     0.541670000000    -0.366427   
O244     O      0.017560000000     0.960580000000     0.972070000000    -0.356611   
O245     O      0.960650000000     0.598800000000     0.947160000000    -0.388714   
O246     O      0.001430000000     0.029980000000     0.594610000000    -0.370025   
O247     O      0.592990000000     0.990290000000     0.951220000000    -0.36387    
O248     O      0.593240000000     0.675120000000     0.533760000000    -0.373327   
O249     O      0.594360000000     0.036380000000     0.593830000000    -0.370464   
O250     O      0.562700000000     0.613370000000     0.904880000000    -0.3673     
O251     O      0.584690000000     0.666990000000     0.953450000000    -0.380981   
O252     O      0.613830000000     0.000470000000     0.532870000000    -0.395296   
O253     O      0.562370000000     0.037700000000     0.901530000000    -0.35962    
O254     O      0.590040000000     0.628030000000     0.591630000000    -0.373137   
O255     O      0.024860000000     0.075610000000     0.507380000000    -0.597779   
O256     O      0.835750000000     0.880200000000     0.689250000000    -0.369883   
O257     O      0.876540000000     0.811390000000     0.836700000000    -0.388481   
O258     O      0.819620000000     0.949600000000     0.811800000000    -0.35594    
O259     O      0.831160000000     0.724820000000     0.742200000000    -0.366652   
O260     O      0.847640000000     0.898600000000     0.859940000000    -0.366865   
O261     O      0.836100000000     0.779380000000     0.689940000000    -0.36615    
O262     O      0.850170000000     0.739920000000     0.818320000000    -0.365779   
O263     O      0.823130000000     0.936950000000     0.738270000000    -0.358203   
O264     O      0.747150000000     0.782150000000     0.692230000000    -0.37305    
O265     O      0.774810000000     0.872470000000     0.882340000000    -0.35962    
O266     O      0.723350000000     0.909710000000     0.750990000000    -0.395293   
O267     O      0.752500000000     0.743180000000     0.830410000000    -0.380875   
O268     O      0.774490000000     0.796800000000     0.878990000000    -0.36742    
O269     O      0.742830000000     0.873800000000     0.690040000000    -0.37052    
O270     O      0.743950000000     0.735060000000     0.750110000000    -0.37331    
O271     O      0.744200000000     0.919890000000     0.832640000000    -0.363657   
O272     O      0.812320000000     0.834570000000     0.776480000000    -0.597839   


