data_structure

_audit_creation_method RASPA-1.0
_audit_creation_date 2023-6-4
_audit_author_name 'Poobodin Mano'

_cell_length_a    22.2742
_cell_length_b    22.4256
_cell_length_c    23.719
_cell_angle_alpha 87.1338
_cell_angle_beta  93.8194
_cell_angle_gamma 120.435
_cell_volume      10190.8

_symmetry_cell_setting          triclinic
_symmetry_space_group_name_Hall 'P 1'
_symmetry_space_group_name_H-M  'P 1'
_symmetry_Int_Tables_number     1

_symmetry_equiv_pos_as_xyz 'x,y,z'

loop_
_atom_site_label
_atom_site_type_symbol
_atom_site_fract_x
_atom_site_fract_y
_atom_site_fract_z
_atom_site_charge
C1       C      0.219300000000     0.317630000000     0.045050000000     0.485805   
C2       C      0.041820000000     0.011740000000     0.020550000000     0.375544   
C3       C      0.200300000000     0.203360000000     0.961010000000     0.466114   
C4       C      0.044310000000     0.126440000000     0.162780000000     0.464013   
C5       C      0.203440000000     0.151840000000     0.225030000000     0.469829   
C6       C      0.284520000000     0.116090000000     0.032770000000     0.461987   
C7       C      0.319120000000     0.303800000000     0.159940000000     0.490186   
C8       C      0.127970000000     0.978890000000     0.127490000000     0.377651   
C9       C      0.178700000000     0.131060000000     0.450280000000     0.484018   
C10      C      0.075900000000     0.182340000000     0.616040000000     0.471412   
C11      C      0.974040000000     0.035550000000     0.573360000000     0.468343   
C12      C      0.305720000000     0.249130000000     0.581270000000     0.522086   
C13      C      0.276730000000     0.106370000000     0.674180000000     0.513166   
C14      C      0.051630000000     0.933780000000     0.622070000000     0.455867   
C15      C      0.168720000000     0.975830000000     0.507770000000     0.507986   
C16      C      0.159190000000     0.161850000000     0.738030000000     0.401491   
C17      C      0.029290000000     0.500110000000     0.027870000000     0.45658    
C18      C      0.211260000000     0.814450000000     0.036930000000     0.484885   
C19      C      0.012890000000     0.596780000000     0.106800000000     0.466821   
C20      C      0.225260000000     0.717960000000     0.941310000000     0.476866   
C21      C      0.306610000000     0.635290000000     0.024860000000     0.470205   
C22      C      0.149320000000     0.635110000000     0.209680000000     0.454288   
C23      C      0.184660000000     0.502520000000     0.073590000000     0.464183   
C24      C      0.280230000000     0.779040000000     0.163060000000     0.485713   
C25      C      0.987650000000     0.508850000000     0.559930000000     0.457427   
C26      C      0.157790000000     0.753440000000     0.533850000000     0.548024   
C27      C      0.024740000000     0.597890000000     0.670510000000     0.514898   
C28      C      0.125170000000     0.577030000000     0.431160000000     0.435138   
C29      C      0.253880000000     0.567460000000     0.527570000000     0.499564   
C30      C      0.185950000000     0.608080000000     0.734380000000     0.497416   
C31      C      0.093720000000     0.431570000000     0.585440000000     0.455318   
C32      C      0.307220000000     0.763030000000     0.623420000000     0.549099   
C33      C      0.540580000000     0.144200000000     0.031740000000     0.431329   
C34      C      0.785240000000     0.069010000000     0.103870000000     0.492007   
C35      C      0.698420000000     0.103450000000     0.006700000000     0.461529   
C36      C      0.563510000000     0.993820000000     0.167760000000     0.528102   
C37      C      0.657530000000     0.127800000000     0.270260000000     0.531204   
C38      C      0.771440000000     0.290160000000     0.022240000000     0.447921   
C39      C      0.658970000000     0.276330000000     0.136230000000     0.488507   
C40      C      0.857040000000     0.214720000000     0.195900000000     0.478184   
C41      C      0.528540000000     0.116910000000     0.656140000000     0.454294   
C42      C      0.685160000000     0.000780000000     0.582010000000     0.473816   
C43      C      0.716490000000     0.147410000000     0.529020000000     0.47637    
C44      C      0.520340000000     0.995200000000     0.721540000000     0.468966   
C45      C      0.688300000000     0.053380000000     0.798210000000     0.468772   
C46      C      0.804840000000     0.271380000000     0.642020000000     0.465344   
C47      C      0.683840000000     0.258480000000     0.710980000000     0.459115   
C48      C      0.782500000000     0.044120000000     0.708090000000     0.480358   
C49      C      0.556390000000     0.474070000000     0.057690000000     0.489289   
C50      C      0.674300000000     0.794160000000     0.070170000000     0.466677   
C51      C      0.552580000000     0.675050000000     0.133050000000     0.464246   
C52      C      0.641230000000     0.590970000000     0.969270000000     0.476284   
C53      C      0.816410000000     0.667240000000     0.034640000000     0.470414   
C54      C      0.640970000000     0.615520000000     0.241310000000     0.467751   
C55      C      0.663210000000     0.505430000000     0.178130000000     0.474642   
C56      C      0.826420000000     0.784300000000     0.113280000000     0.47914    
C57      C      0.579930000000     0.459860000000     0.546730000000     0.496099   
C58      C      0.734490000000     0.800380000000     0.548700000000     0.408871   
C59      C      0.525390000000     0.622660000000     0.615190000000     0.539132   
C60      C      0.680460000000     0.617280000000     0.482500000000     0.461877   
C61      C      0.838170000000     0.662780000000     0.565410000000     0.453483   
C62      C      0.609420000000     0.592750000000     0.746260000000     0.535331   
C63      C      0.674830000000     0.480630000000     0.683890000000     0.487323   
C64      C      0.814640000000     0.757760000000     0.676390000000     0.51043    
C65      C      0.612100000000     0.513320000000     0.888210000000    -0.00728126 
C66      C      0.580970000000     0.511290000000     0.828060000000    -0.00387032 
C67      C      0.699680000000     0.604130000000     0.330310000000    -0.00907731 
C68      C      0.681110000000     0.570430000000     0.389680000000    -0.00663044 
C69      C      0.640620000000     0.879980000000     0.557280000000    -0.00177647 
C70      C      0.650520000000     0.837450000000     0.514040000000    -0.00941185 
C71      C      0.618250000000     0.317390000000     0.723500000000    -0.00634177 
C72      C      0.627530000000     0.381330000000     0.751890000000    -0.00411709 
C73      C      0.764750000000     0.090010000000     0.885680000000    -0.00608053 
C74      C      0.755720000000     0.061490000000     0.946420000000    -0.00348979 
C75      C      0.700830000000     0.138890000000     0.370420000000    -0.00515885 
C76      C      0.670930000000     0.129350000000     0.429020000000    -0.00859431 
C77      C      0.693390000000     0.913710000000     0.079650000000    -0.00395457 
C78      C      0.773760000000     0.953260000000     0.087110000000     0.000440588
C79      C      0.694950000000     0.363310000000     0.210160000000    -0.00727174 
C80      C      0.721210000000     0.440870000000     0.217290000000    -0.00622136 
C81      C      0.848550000000     0.395770000000     0.619050000000     1.45634e-05
C82      C      0.871370000000     0.402810000000     0.558090000000    -0.00343562 
C83      C      0.399900000000     0.914140000000     0.686550000000    -0.00840934 
C84      C      0.391060000000     0.842270000000     0.696610000000     0.00487699 
C85      C      0.935740000000     0.631010000000     0.648860000000    -0.00345322 
C86      C      0.919590000000     0.618660000000     0.584560000000    -0.00325817 
C87      C      0.370480000000     0.577850000000     0.528450000000    -0.00420165 
C88      C      0.398440000000     0.570850000000     0.587690000000    -0.00215115 
C89      C      0.205850000000     0.700360000000     0.838490000000    -0.00721875 
C90      C      0.255010000000     0.677200000000     0.818210000000    -0.00180737 
C91      C      0.054900000000     0.552520000000     0.341340000000    -0.00652023 
C92      C      0.062340000000     0.587520000000     0.283170000000    -0.00735154 
C93      C      0.910950000000     0.457530000000     0.981350000000    -0.00667403 
C94      C      0.840950000000     0.419680000000     0.010890000000    -0.00863398 
C95      C      0.398790000000     0.847140000000     0.207560000000    -0.0107204  
C96      C      0.439490000000     0.898400000000     0.160100000000     0.000548239
C97      C      0.893000000000     0.616140000000     0.034060000000    -0.0011631  
C98      C      0.917440000000     0.623280000000     0.096910000000    -0.00655867 
C99      C      0.401160000000     0.619430000000     0.070970000000    -0.00689311 
C100     C      0.467260000000     0.691460000000     0.070610000000     0.00196018 
C101     C      0.002710000000     0.839310000000     0.694450000000    -0.00242656 
C102     C      0.931660000000     0.772110000000     0.697520000000    -0.00735617 
C103     C      0.462130000000     0.373830000000     0.510650000000    -0.0104025  
C104     C      0.430100000000     0.322530000000     0.560070000000    -0.00132883 
C105     C      0.867950000000     0.011330000000     0.620260000000    -0.0128724  
C106     C      0.889300000000     0.055210000000     0.673960000000     0.00039771 
C107     C      0.360540000000     0.069440000000     0.707430000000    -0.00319056 
C108     C      0.430940000000     0.128740000000     0.687900000000    -0.00560122 
C109     C      0.136870000000     0.880410000000     0.440840000000    -0.00613296 
C110     C      0.140350000000     0.813540000000     0.447980000000    -0.00320149 
C111     C      0.055780000000     0.256700000000     0.546210000000    -0.0101343  
C112     C      0.035770000000     0.312600000000     0.548540000000    -0.00419805 
C113     C      0.151440000000     0.230320000000     0.812830000000    -0.00880347 
C114     C      0.138380000000     0.222990000000     0.876490000000    -0.00534314 
C115     C      0.262460000000     0.197420000000     0.376070000000    -0.00349961 
C116     C      0.260120000000     0.216750000000     0.313090000000    -0.00756449 
C117     C      0.936990000000     0.862160000000     0.067270000000     0.00495383 
C118     C      0.923880000000     0.919590000000     0.042540000000    -0.00984504 
C119     C      0.442950000000     0.382110000000     0.144630000000    -0.00768059 
C120     C      0.436240000000     0.388740000000     0.079630000000     0.0122325  
C121     C      0.977000000000     0.181810000000     0.183430000000    -0.00753042 
C122     C      0.953040000000     0.199290000000     0.236360000000    -0.00882529 
C123     C      0.415460000000     0.058150000000     0.035370000000    -0.0064728  
C124     C      0.374780000000     0.086800000000     0.062030000000    -0.00430469 
C125     C      0.167920000000     0.894310000000     0.048250000000    -0.0115242  
C126     C      0.186880000000     0.913290000000     0.110950000000    -0.00306136 
C127     C      0.157060000000     0.372890000000     0.997610000000     0.00393584 
C128     C      0.124570000000     0.379890000000     0.050070000000    -0.000152332
Co1      Co     0.169190000000     0.231230000000     0.137520000000     1.14647    
Co2      Co     0.149660000000     0.095390000000     0.038660000000     0.961948   
Co3      Co     0.286520000000     0.233480000000     0.064560000000     1.13811    
Co4      Co     0.130000000000     0.077090000000     0.129940000000     0.975429   
Co5      Co     0.245360000000     0.101500000000     0.555800000000     1.19002    
Co6      Co     0.073730000000     0.057220000000     0.654930000000     0.86929    
Co7      Co     0.080810000000     0.034770000000     0.520530000000     1.10435    
Co8      Co     0.180280000000     0.162690000000     0.639470000000     1.08034    
Co9      Co     0.161460000000     0.594740000000     0.994940000000     1.05856    
Co10     Co     0.138250000000     0.709680000000     0.109310000000     1.09775    
Co11     Co     0.126990000000     0.561960000000     0.123250000000     1.05585    
Co12     Co     0.279740000000     0.732330000000     0.060280000000     1.11494    
Co13     Co     0.113230000000     0.551170000000     0.524530000000     1.06271    
Co14     Co     0.159000000000     0.690960000000     0.645070000000     1.21959    
Co15     Co     0.094330000000     0.524680000000     0.651660000000     1.05769    
Co16     Co     0.230080000000     0.676220000000     0.526940000000     1.08514    
Co17     Co     0.594730000000     0.134320000000     0.158370000000     1.06017    
Co18     Co     0.797040000000     0.205070000000     0.091810000000     1.02459    
Co19     Co     0.651640000000     0.174570000000     0.059080000000     1.05254    
Co20     Co     0.716980000000     0.086340000000     0.187240000000     1.1565     
Co21     Co     0.639030000000     0.128950000000     0.741690000000     1.06397    
Co22     Co     0.775110000000     0.137960000000     0.637460000000     1.10789    
Co23     Co     0.655460000000     0.175970000000     0.611170000000     1.05493    
Co24     Co     0.636410000000     0.001870000000     0.683310000000     1.08976    
Co25     Co     0.702740000000     0.567780000000     0.076640000000     1.09177    
Co26     Co     0.700950000000     0.719240000000     0.162040000000     1.05128    
Co27     Co     0.575310000000     0.566810000000     0.132980000000     1.0928     
Co28     Co     0.710250000000     0.707290000000     0.029720000000     1.09755    
Co29     Co     0.718930000000     0.558690000000     0.587960000000     1.08735    
Co30     Co     0.670300000000     0.702450000000     0.658590000000     1.05215    
Co31     Co     0.576070000000     0.524790000000     0.637800000000     1.15675    
Co32     Co     0.738770000000     0.702350000000     0.569700000000     1.04982    
H1       H      0.561010000000     0.568610000000     0.910420000000     0.109689   
H2       H      0.631360000000     0.624290000000     0.828930000000     0.11027    
H3       H      0.668860000000     0.532860000000     0.886050000000     0.0436605  
H4       H      0.586730000000     0.460270000000     0.907100000000     0.0358354  
H5       H      0.523350000000     0.486220000000     0.829060000000     0.037346   
H6       H      0.593210000000     0.479190000000     0.802220000000     0.0405829  
H7       H      0.588140000000     0.557590000000     0.310700000000     0.101902   
H8       H      0.638980000000     0.635780000000     0.407380000000     0.108586   
H9       H      0.726750000000     0.581830000000     0.309120000000     0.0424325  
H10      H      0.736150000000     0.660760000000     0.334130000000     0.0489434  
H11      H      0.726960000000     0.567820000000     0.408210000000     0.0424261  
H12      H      0.636370000000     0.516610000000     0.386750000000     0.0355365  
H13      H      0.732350000000     0.970840000000     0.527140000000     0.10252    
H14      H      0.754740000000     0.876240000000     0.487320000000     0.10211    
H15      H      0.651480000000     0.865030000000     0.600510000000     0.0407856  
H16      H      0.585330000000     0.867220000000     0.553860000000     0.0394036  
H17      H      0.641080000000     0.853620000000     0.470850000000     0.0356028  
H18      H      0.610050000000     0.781990000000     0.519390000000     0.0440032  
H19      H      0.699300000000     0.317850000000     0.780190000000     0.0997311  
H20      H      0.735320000000     0.456600000000     0.739910000000     0.105363   
H21      H      0.613970000000     0.324020000000     0.676850000000     0.0505734  
H22      H      0.568630000000     0.271890000000     0.736820000000     0.0346838  
H23      H      0.639330000000     0.379260000000     0.797980000000     0.0308045  
H24      H      0.577870000000     0.381990000000     0.747000000000     0.0382864  
H25      H      0.698790000000     0.985990000000     0.854770000000     0.100459   
H26      H      0.645060000000     0.016100000000     0.957130000000     0.107479   
H27      H      0.817540000000     0.104380000000     0.872720000000     0.0398119  
H28      H      0.760710000000     0.137540000000     0.883980000000     0.059197   
H29      H      0.803880000000     0.095200000000     0.972260000000     0.041989   
H30      H      0.750090000000     0.009270000000     0.947920000000     0.0312129  
H31      H      0.610550000000     0.143310000000     0.335640000000     0.10318    
H32      H      0.776050000000     0.161240000000     0.461600000000     0.10026    
H33      H      0.714170000000     0.098010000000     0.364960000000     0.0409548  
H34      H      0.749120000000     0.190330000000     0.367520000000     0.039681   
H35      H      0.628160000000     0.074970000000     0.434670000000     0.0452678  
H36      H      0.649730000000     0.164460000000     0.432390000000     0.0369409  
H37      H      0.638180000000     0.842110000000     0.012240000000     0.0982241  
H38      H      0.854050000000     0.054340000000     0.060770000000     0.102964   
H39      H      0.676220000000     0.945740000000     0.053990000000     0.04773    
H40      H      0.670040000000     0.903720000000     0.121540000000     0.0477367  
H41      H      0.795040000000     0.935150000000     0.055240000000     0.0370476  
H42      H      0.789630000000     0.940860000000     0.129440000000     0.0415895  
H43      H      0.706650000000     0.381770000000     0.119200000000     0.104618   
H44      H      0.618310000000     0.421620000000     0.233310000000     0.100427   
H45      H      0.645850000000     0.331420000000     0.232600000000     0.045266   
H46      H      0.734760000000     0.352270000000     0.230650000000     0.0399016  
H47      H      0.762100000000     0.472160000000     0.186720000000     0.0420889  
H48      H      0.746010000000     0.456060000000     0.260380000000     0.0316847  
H49      H      0.896330000000     0.352400000000     0.676660000000     0.106703   
H50      H      0.904190000000     0.495590000000     0.506880000000     0.0996705  
H51      H      0.794530000000     0.386550000000     0.618880000000     0.0382719  
H52      H      0.882230000000     0.444330000000     0.642240000000     0.0404129  
H53      H      0.824250000000     0.381370000000     0.528930000000     0.0349002  
H54      H      0.896480000000     0.371530000000     0.552330000000     0.0520707  
H55      H      0.432120000000     0.969500000000     0.764960000000     0.100487   
H56      H      0.414380000000     0.818140000000     0.617330000000     0.109918   
H57      H      0.348890000000     0.911000000000     0.690360000000     0.0350514  
H58      H      0.416920000000     0.933990000000     0.643080000000     0.0536902  
H59      H      0.350710000000     0.812680000000     0.727860000000     0.0383094  
H60      H      0.440460000000     0.846500000000     0.714560000000     0.0339499  
H61      H      0.924270000000     0.542320000000     0.699620000000     0.101414   
H62      H      0.927720000000     0.696300000000     0.521590000000     0.103365   
H63      H      0.889120000000     0.622010000000     0.670330000000     0.0543795  
H64      H      0.977230000000     0.685670000000     0.655470000000     0.0433959  
H65      H      0.877190000000     0.564330000000     0.577790000000     0.0292256  
H66      H      0.966470000000     0.625590000000     0.564700000000     0.0528516  
H67      H      0.269650000000     0.484780000000     0.518500000000     0.108209   
H68      H      0.475730000000     0.678600000000     0.596810000000     0.105431   
H69      H      0.390840000000     0.558110000000     0.497100000000     0.0372394  
H70      H      0.389870000000     0.633220000000     0.517190000000     0.0483377  
H71      H      0.396300000000     0.520190000000     0.591850000000     0.0453002  
H72      H      0.364790000000     0.571600000000     0.619900000000     0.0465843  
H73      H      0.286740000000     0.789670000000     0.881700000000     0.100516   
H74      H      0.226350000000     0.572740000000     0.799940000000     0.103458   
H75      H      0.154580000000     0.654580000000     0.848440000000     0.0503015  
H76      H      0.196470000000     0.730930000000     0.804430000000     0.0441453  
H77      H      0.282500000000     0.668090000000     0.855590000000     0.0376361  
H78      H      0.295710000000     0.719190000000     0.792510000000     0.0360496  
H79      H      0.153980000000     0.643970000000     0.363240000000     0.107299   
H80      H      0.148460000000     0.570190000000     0.274060000000     0.101735   
H81      H      0.046870000000     0.499800000000     0.336780000000     0.0442841  
H82      H      0.008830000000     0.547960000000     0.361120000000     0.0396002  
H83      H      0.063690000000     0.637380000000     0.287370000000     0.0425771  
H84      H      0.016650000000     0.553360000000     0.255120000000     0.0385048  
H85      H      0.946010000000     0.401190000000     0.036510000000     0.10442    
H86      H      0.775660000000     0.345010000000     0.948520000000     0.105273   
H87      H      0.927820000000     0.513390000000     0.976930000000     0.0422812  
H88      H      0.905170000000     0.437260000000     0.938310000000     0.0394387  
H89      H      0.812890000000     0.448420000000     0.001260000000     0.0290351  
H90      H      0.849670000000     0.419930000000     0.057660000000     0.0479431  
H91      H      0.309410000000     0.857390000000     0.219820000000     0.100844   
H92      H      0.530820000000     0.890070000000     0.181500000000     0.101574   
H93      H      0.420050000000     0.872350000000     0.249090000000     0.0368427  
H94      H      0.405190000000     0.801070000000     0.207340000000     0.0478976  
H95      H      0.427190000000     0.940780000000     0.158010000000     0.0430528  
H96      H      0.422740000000     0.871780000000     0.118900000000     0.0305156  
H97      H      0.889310000000     0.691040000000     0.975200000000     0.103423   
H98      H      0.913530000000     0.531330000000     0.135040000000     0.099271   
H99      H      0.848810000000     0.562900000000     0.026750000000     0.0246797  
H100     H      0.936310000000     0.623650000000     0.008320000000     0.0497504  
H101     H      0.873550000000     0.609220000000     0.124210000000     0.0544349  
H102     H      0.957390000000     0.678070000000     0.105720000000     0.0453212  
H103     H      0.352090000000     0.587120000000     0.987020000000     0.101422   
H104     H      0.521230000000     0.745360000000     0.147490000000     0.100813   
H105     H      0.375280000000     0.610220000000     0.111620000000     0.0582261  
H106     H      0.415500000000     0.578980000000     0.067980000000     0.0500791  
H107     H      0.451770000000     0.731510000000     0.066630000000     0.0358908  
H108     H      0.497150000000     0.697360000000     0.032950000000     0.0510336  
H109     H      0.995670000000     0.830250000000     0.602930000000     0.109555   
H110     H      0.874420000000     0.799500000000     0.750090000000     0.103922   
H111     H      0.044370000000     0.828440000000     0.710270000000     0.0359954  
H112     H      0.004010000000     0.878300000000     0.722500000000     0.0486661  
H113     H      0.935320000000     0.738500000000     0.732000000000     0.0324329  
H114     H      0.919720000000     0.743410000000     0.657970000000     0.0541064  
H115     H      0.558070000000     0.373880000000     0.501370000000     0.0988105  
H116     H      0.361560000000     0.355800000000     0.587710000000     0.106367   
H117     H      0.448280000000     0.415040000000     0.510710000000     0.0493005  
H118     H      0.440810000000     0.346200000000     0.470090000000     0.034279   
H119     H      0.465110000000     0.342040000000     0.598680000000     0.0317312  
H120     H      0.426670000000     0.273050000000     0.549670000000     0.0392539  
H121     H      0.912450000000     0.077840000000     0.546620000000     0.0992265  
H122     H      0.815070000000     0.974070000000     0.725380000000     0.100508   
H123     H      0.816930000000     0.002000000000     0.602850000000     0.0473589  
H124     H      0.860610000000     0.959350000000     0.631600000000     0.0487209  
H125     H      0.904360000000     0.109450000000     0.662480000000     0.0322715  
H126     H      0.934810000000     0.055200000000     0.696010000000     0.0440282  
H127     H      0.314610000000     0.113190000000     0.757600000000     0.108275   
H128     H      0.435510000000     0.085750000000     0.609870000000     0.102463   
H129     H      0.369130000000     0.045880000000     0.747230000000     0.0332128  
H130     H      0.335860000000     0.027640000000     0.675750000000     0.0502179  
H131     H      0.465650000000     0.152920000000     0.725890000000     0.041786   
H132     H      0.424000000000     0.169800000000     0.665570000000     0.0385322  
H133     H      0.224150000000     0.926020000000     0.501790000000     0.105704   
H134     H      0.096820000000     0.798610000000     0.529820000000     0.110744   
H135     H      0.081780000000     0.867250000000     0.443490000000     0.0427548  
H136     H      0.155410000000     0.904660000000     0.398800000000     0.0361066  
H137     H      0.192190000000     0.824430000000     0.435240000000     0.0407885  
H138     H      0.099350000000     0.772990000000     0.420180000000     0.0346859  
H139     H      0.993820000000     0.200750000000     0.617670000000     0.0959463  
H140     H      0.104220000000     0.352390000000     0.623620000000     0.111257   
H141     H      0.112120000000     0.282270000000     0.537610000000     0.0595709  
H142     H      0.025680000000     0.222020000000     0.510470000000     0.041059   
H143     H      0.981090000000     0.289310000000     0.561270000000     0.0350097  
H144     H      0.039350000000     0.335600000000     0.505360000000     0.0494472  
H145     H      0.138780000000     0.128010000000     0.820340000000     0.11181    
H146     H      0.248840000000     0.268890000000     0.894170000000     0.106093   
H147     H      0.200310000000     0.279380000000     0.803690000000     0.0480378  
H148     H      0.107390000000     0.232180000000     0.789530000000     0.0395182  
H149     H      0.092230000000     0.171570000000     0.885690000000     0.0485504  
H150     H      0.127130000000     0.263510000000     0.888350000000     0.0330606  
H151     H      0.154520000000     0.171870000000     0.378260000000     0.109318   
H152     H      0.252600000000     0.121840000000     0.287330000000     0.107857   
H153     H      0.297310000000     0.245500000000     0.399790000000     0.0339896  
H154     H      0.284950000000     0.162990000000     0.381790000000     0.0417574  
H155     H      0.313780000000     0.255930000000     0.301270000000     0.0329846  
H156     H      0.227400000000     0.241170000000     0.306270000000     0.0444037  
H157     H      0.923370000000     0.832290000000     0.155740000000     0.113183   
H158     H      0.971040000000     0.942210000000     0.962010000000     0.102426   
H159     H      0.993090000000     0.884530000000     0.079810000000     0.0446733  
H160     H      0.924580000000     0.823510000000     0.034260000000     0.0385674  
H161     H      0.924110000000     0.951720000000     0.076910000000     0.057181   
H162     H      0.872000000000     0.896370000000     0.019860000000     0.0421399  
H163     H      0.373770000000     0.405530000000     0.184930000000     0.0996333  
H164     H      0.513230000000     0.368790000000     0.050560000000     0.104428   
H165     H      0.483970000000     0.432000000000     0.161910000000     0.0255233  
H166     H      0.457660000000     0.342390000000     0.156440000000     0.044923   
H167     H      0.419570000000     0.427000000000     0.067750000000     0.0396129  
H168     H      0.396590000000     0.338320000000     0.061730000000     0.0030515  
H169     H      0.976170000000     0.093970000000     0.228050000000     0.105451   
H170     H      0.956970000000     0.295710000000     0.214110000000     0.0987521  
H171     H      0.020780000000     0.230840000000     0.166700000000     0.0320503  
H172     H      0.934400000000     0.161060000000     0.150390000000     0.0534978  
H173     H      0.998620000000     0.227980000000     0.266250000000     0.0326451  
H174     H      0.914600000000     0.151210000000     0.258410000000     0.0446166  
H175     H      0.468780000000     0.124630000000     0.964380000000     0.106606   
H176     H      0.297570000000     0.044930000000     0.991880000000     0.104222   
H177     H      0.382130000000     0.017170000000     0.004580000000     0.0318893  
H178     H      0.432280000000     0.032310000000     0.068790000000     0.0459225  
H179     H      0.410840000000     0.141210000000     0.074930000000     0.0521925  
H180     H      0.351360000000     0.055920000000     0.100830000000     0.0372272  
H181     H      0.267750000000     0.919320000000     0.019910000000     0.0990931  
H182     H      0.105150000000     0.886490000000     0.168440000000     0.0999455  
H183     H      0.170720000000     0.938740000000     0.023200000000     0.0600546  
H184     H      0.113670000000     0.850060000000     0.043100000000     0.0490691  
H185     H      0.238640000000     0.961120000000     0.115160000000     0.0436975  
H186     H      0.191320000000     0.871540000000     0.134370000000     0.0347461  
H187     H      0.266000000000     0.404910000000     0.993090000000     0.102637   
H188     H      0.194860000000     0.428500000000     0.122630000000     0.0989276  
H189     H      0.170400000000     0.418020000000     0.968700000000     0.0372995  
H190     H      0.118150000000     0.325720000000     0.974530000000     0.0363725  
H191     H      0.101930000000     0.332170000000     0.076670000000     0.0414932  
H192     H      0.079140000000     0.385810000000     0.036120000000     0.0413512  
N1       N      0.600870000000     0.558300000000     0.923060000000    -0.227264   
N2       N      0.609270000000     0.581230000000     0.802890000000    -0.238045   
N3       N      0.637490000000     0.591230000000     0.295390000000    -0.226116   
N4       N      0.664300000000     0.610630000000     0.425970000000    -0.221295   
N5       N      0.686530000000     0.954500000000     0.548120000000    -0.226212   
N6       N      0.720510000000     0.845460000000     0.518440000000    -0.209503   
N7       N      0.675710000000     0.304610000000     0.739590000000    -0.225724   
N8       N      0.684400000000     0.443510000000     0.726800000000    -0.229132   
N9       N      0.712770000000     0.037700000000     0.847130000000    -0.223628   
N10      N      0.694110000000     0.057140000000     0.969570000000    -0.222461   
N11      N      0.650870000000     0.135190000000     0.325530000000    -0.239097   
N12      N      0.725660000000     0.146000000000     0.473290000000    -0.229712   
N13      N      0.666210000000     0.847880000000     0.050730000000    -0.230224   
N14      N      0.806380000000     0.028950000000     0.080350000000    -0.234087   
N15      N      0.684410000000     0.343310000000     0.150550000000    -0.224985   
N16      N      0.663240000000     0.454540000000     0.211580000000    -0.226069   
N17      N      0.852670000000     0.339310000000     0.649460000000    -0.224755   
N18      N      0.919570000000     0.474920000000     0.541540000000    -0.224917   
N19      N      0.450600000000     0.962140000000     0.728080000000    -0.228248   
N20      N      0.373300000000     0.806290000000     0.643150000000    -0.244269   
N21      N      0.959070000000     0.585180000000     0.675850000000    -0.238871   
N22      N      0.899130000000     0.666080000000     0.555610000000    -0.22872    
N23      N      0.294000000000     0.538060000000     0.524650000000    -0.231436   
N24      N      0.469370000000     0.629000000000     0.598240000000    -0.239591   
N25      N      0.239220000000     0.744190000000     0.887930000000    -0.227717   
N26      N      0.218730000000     0.613450000000     0.785740000000    -0.23323    
N27      N      0.117710000000     0.593900000000     0.376860000000    -0.216669   
N28      N      0.126430000000     0.599880000000     0.258840000000    -0.227993   
N29      N      0.963220000000     0.448690000000     0.015150000000    -0.224684   
N30      N      0.796180000000     0.349200000000     0.990060000000    -0.219965   
N31      N      0.324970000000     0.826460000000     0.201060000000    -0.230084   
N32      N      0.514450000000     0.925550000000     0.170430000000    -0.239308   
N33      N      0.871420000000     0.666220000000     0.014100000000    -0.230653   
N34      N      0.945260000000     0.577370000000     0.113060000000    -0.228738   
N35      N      0.352400000000     0.612310000000     0.023050000000    -0.227072   
N36      N      0.512340000000     0.704390000000     0.122360000000    -0.224115   
N37      N      0.016630000000     0.865490000000     0.635950000000    -0.218093   
N38      N      0.874620000000     0.783910000000     0.709310000000    -0.228716   
N39      N      0.538050000000     0.403850000000     0.514640000000    -0.233714   
N40      N      0.362220000000     0.312800000000     0.573340000000    -0.237536   
N41      N      0.918750000000     0.044920000000     0.576070000000    -0.227047   
N42      N      0.831520000000     0.025100000000     0.712290000000    -0.231171   
N43      N      0.313730000000     0.095760000000     0.717310000000    -0.233563   
N44      N      0.462260000000     0.104650000000     0.648720000000    -0.224566   
N45      N      0.180720000000     0.928640000000     0.485320000000    -0.233673   
N46      N      0.129810000000     0.789260000000     0.507000000000    -0.239378   
N47      N      0.040250000000     0.214840000000     0.598640000000    -0.221645   
N48      N      0.082640000000     0.366230000000     0.588460000000    -0.22253    
N49      N      0.155110000000     0.171320000000     0.793360000000    -0.207647   
N50      N      0.200300000000     0.232210000000     0.909310000000    -0.222301   
N51      N      0.193090000000     0.164360000000     0.399230000000    -0.225881   
N52      N      0.235010000000     0.156500000000     0.277000000000    -0.220933   
N53      N      0.896330000000     0.827690000000     0.116930000000    -0.229234   
N54      N      0.977350000000     0.962040000000     0.002340000000    -0.205129   
N55      N      0.378060000000     0.364700000000     0.170200000000    -0.235404   
N56      N      0.502280000000     0.408440000000     0.055160000000    -0.238512   
N57      N      0.998560000000     0.130370000000     0.195310000000    -0.229427   
N58      N      0.922580000000     0.242680000000     0.219750000000    -0.228611   
N59      N      0.475600000000     0.113400000000     0.006830000000    -0.215505   
N60      N      0.318780000000     0.082380000000     0.023200000000    -0.223774   
N61      N      0.218010000000     0.877600000000     0.027160000000    -0.229015   
N62      N      0.134860000000     0.922640000000     0.137560000000    -0.20768    
N63      N      0.219910000000     0.369010000000     0.012100000000    -0.229126   
N64      N      0.175340000000     0.438660000000     0.084330000000    -0.225684   
O1       O      0.164900000000     0.274930000000     0.069900000000    -0.465419   
O2       O      0.094200000000     0.026260000000     0.992020000000    -0.394819   
O3       O      0.258700000000     0.220030000000     0.985880000000    -0.453695   
O4       O      0.067930000000     0.087300000000     0.176650000000    -0.400115   
O5       O      0.144140000000     0.159790000000     0.984210000000    -0.402751   
O6       O      0.073550000000     0.170140000000     0.124260000000    -0.468237   
O7       O      0.050600000000     0.039430000000     0.069120000000    -0.438582   
O8       O      0.274220000000     0.313710000000     0.051930000000    -0.453463   
O9       O      0.179300000000     0.191780000000     0.210850000000    -0.441077   
O10      O      0.228650000000     0.101150000000     0.004550000000    -0.398401   
O11      O      0.322610000000     0.255390000000     0.138810000000    -0.465237   
O12      O      0.088960000000     0.988970000000     0.157520000000    -0.387104   
O13      O      0.160500000000     0.021990000000     0.087430000000    -0.448698   
O14      O      0.261970000000     0.302820000000     0.155850000000    -0.472294   
O15      O      0.197020000000     0.106490000000     0.191190000000    -0.412785   
O16      O      0.306320000000     0.160690000000     0.070890000000    -0.451804   
O17      O      0.191490000000     0.170800000000     0.094170000000    -0.619994   
O18      O      0.223930000000     0.120580000000     0.477750000000    -0.454866   
O19      O      0.052210000000     0.133150000000     0.651550000000    -0.442192   
O20      O      0.020370000000     0.068510000000     0.538630000000    -0.448445   
O21      O      0.257860000000     0.242030000000     0.610920000000    -0.44027    
O22      O      0.987870000000     0.005330000000     0.612820000000    -0.429105   
O23      O      0.302600000000     0.196960000000     0.561060000000    -0.501377   
O24      O      0.131460000000     0.197020000000     0.595060000000    -0.43668    
O25      O      0.118970000000     0.108640000000     0.469110000000    -0.4557     
O26      O      0.276930000000     0.087150000000     0.625610000000    -0.490394   
O27      O      0.082430000000     0.978410000000     0.660950000000    -0.411358   
O28      O      0.125460000000     0.991300000000     0.485790000000    -0.458573   
O29      O      0.185200000000     0.212540000000     0.702470000000    -0.397977   
O30      O      0.136120000000     0.100040000000     0.721030000000    -0.432576   
O31      O      0.203870000000     0.007240000000     0.550380000000    -0.49895    
O32      O      0.244070000000     0.137230000000     0.682440000000    -0.427246   
O33      O      0.043180000000     0.952050000000     0.571240000000    -0.419127   
O34      O      0.153690000000     0.093620000000     0.584470000000    -0.564165   
O35      O      0.060770000000     0.554450000000     0.997330000000    -0.419242   
O36      O      0.152090000000     0.762330000000     0.043210000000    -0.4573     
O37      O      0.040550000000     0.565780000000     0.134320000000    -0.427525   
O38      O      0.274890000000     0.736860000000     0.978400000000    -0.45335    
O39      O      0.050590000000     0.650480000000     0.078650000000    -0.45765    
O40      O      0.165570000000     0.668410000000     0.952110000000    -0.450287   
O41      O      0.264570000000     0.809990000000     0.050830000000    -0.461413   
O42      O      0.060380000000     0.492650000000     0.071630000000    -0.446076   
O43      O      0.260440000000     0.622430000000     0.985360000000    -0.432264   
O44      O      0.119470000000     0.664900000000     0.184700000000    -0.436453   
O45      O      0.199460000000     0.542870000000     0.113880000000    -0.434488   
O46      O      0.297430000000     0.741920000000     0.138470000000    -0.450268   
O47      O      0.224010000000     0.777310000000     0.147630000000    -0.461103   
O48      O      0.160050000000     0.514230000000     0.027560000000    -0.452385   
O49      O      0.308190000000     0.667740000000     0.066940000000    -0.457766   
O50      O      0.184370000000     0.620270000000     0.180700000000    -0.446894   
O51      O      0.175450000000     0.650070000000     0.070390000000    -0.52137    
O52      O      0.032260000000     0.557250000000     0.529770000000    -0.444738   
O53      O      0.147920000000     0.739000000000     0.585010000000    -0.519683   
O54      O      0.045460000000     0.559000000000     0.692630000000    -0.461574   
O55      O      0.171460000000     0.623890000000     0.463120000000    -0.524402   
O56      O      0.065030000000     0.647620000000     0.641050000000    -0.517646   
O57      O      0.082610000000     0.518690000000     0.452500000000    -0.407787   
O58      O      0.190510000000     0.732350000000     0.508040000000    -0.48493    
O59      O      0.008110000000     0.485750000000     0.602640000000    -0.436827   
O60      O      0.189190000000     0.532490000000     0.519090000000    -0.436493   
O61      O      0.170920000000     0.653480000000     0.717020000000    -0.470756   
O62      O      0.131480000000     0.474280000000     0.622490000000    -0.447972   
O63      O      0.297820000000     0.737810000000     0.575790000000    -0.499069   
O64      O      0.256160000000     0.747070000000     0.652610000000    -0.507281   
O65      O      0.067740000000     0.451980000000     0.545570000000    -0.393533   
O66      O      0.280280000000     0.630160000000     0.536880000000    -0.46892    
O67      O      0.168430000000     0.556170000000     0.704870000000    -0.461476   
O68      O      0.155520000000     0.610650000000     0.595530000000    -0.533157   
O69      O      0.549970000000     0.133510000000     0.084130000000    -0.509745   
O70      O      0.822460000000     0.134020000000     0.101460000000    -0.453014   
O71      O      0.643360000000     0.095710000000     0.026620000000    -0.438528   
O72      O      0.625310000000     0.012530000000     0.183510000000    -0.495544   
O73      O      0.757710000000     0.155550000000     0.020560000000    -0.429887   
O74      O      0.547500000000     0.038090000000     0.150790000000    -0.477901   
O75      O      0.728830000000     0.042670000000     0.127670000000    -0.48354    
O76      O      0.593070000000     0.178220000000     0.002400000000    -0.403573   
O77      O      0.614420000000     0.128940000000     0.234440000000    -0.487781   
O78      O      0.793650000000     0.288510000000     0.072040000000    -0.428502   
O79      O      0.665210000000     0.261330000000     0.087500000000    -0.43124    
O80      O      0.814790000000     0.150420000000     0.201440000000    -0.457845   
O81      O      0.842750000000     0.249780000000     0.160190000000    -0.444517   
O82      O      0.631970000000     0.228460000000     0.172020000000    -0.465079   
O83      O      0.705890000000     0.120030000000     0.254790000000    -0.484598   
O84      O      0.719410000000     0.235540000000     0.004690000000    -0.396914   
O85      O      0.698740000000     0.155080000000     0.129760000000    -0.529611   
O86      O      0.561700000000     0.137260000000     0.703700000000    -0.430277   
O87      O      0.742760000000     0.052790000000     0.597990000000    -0.459079   
O88      O      0.657520000000     0.127590000000     0.547820000000    -0.441641   
O89      O      0.544970000000     0.987620000000     0.677880000000    -0.448834   
O90      O      0.768800000000     0.170560000000     0.562920000000    -0.466622   
O91      O      0.561360000000     0.037750000000     0.758030000000    -0.444732   
O92      O      0.629570000000     0.986520000000     0.605200000000    -0.442761   
O93      O      0.558660000000     0.111290000000     0.614860000000    -0.431829   
O94      O      0.704510000000     0.115120000000     0.785860000000    -0.435671   
O95      O      0.813390000000     0.225820000000     0.668920000000    -0.443287   
O96      O      0.652330000000     0.237380000000     0.663610000000    -0.444656   
O97      O      0.721150000000     0.999640000000     0.692850000000    -0.463632   
O98      O      0.799800000000     0.107070000000     0.705180000000    -0.455259   
O99      O      0.707840000000     0.224000000000     0.736480000000    -0.439814   
O100     O      0.646570000000     0.004820000000     0.765530000000    -0.443104   
O101     O      0.752400000000     0.253330000000     0.607410000000    -0.429752   
O102     O      0.676300000000     0.110520000000     0.667910000000    -0.524638   
O103     O      0.616240000000     0.483700000000     0.069370000000    -0.469951   
O104     O      0.708930000000     0.797460000000     0.115320000000    -0.439923   
O105     O      0.540870000000     0.623330000000     0.105530000000    -0.447554   
O106     O      0.636880000000     0.639820000000     0.988090000000    -0.461759   
O107     O      0.604160000000     0.701530000000     0.169180000000    -0.423577   
O108     O      0.683140000000     0.573630000000     0.993500000000    -0.431427   
O109     O      0.650150000000     0.740860000000     0.041310000000    -0.457137   
O110     O      0.546480000000     0.523750000000     0.063140000000    -0.46352    
O111     O      0.793400000000     0.638950000000     0.080880000000    -0.472723   
O112     O      0.698320000000     0.655940000000     0.219910000000    -0.439205   
O113     O      0.606130000000     0.504540000000     0.167260000000    -0.449523   
O114     O      0.792210000000     0.781120000000     0.067340000000    -0.455357   
O115     O      0.795390000000     0.748020000000     0.155880000000    -0.440278   
O116     O      0.716890000000     0.548250000000     0.152510000000    -0.444801   
O117     O      0.780720000000     0.686990000000     0.004240000000    -0.440478   
O118     O      0.586050000000     0.595310000000     0.210640000000    -0.450159   
O119     O      0.673110000000     0.640300000000     0.101290000000    -0.522798   
O120     O      0.639020000000     0.471640000000     0.565110000000    -0.465565   
O121     O      0.699680000000     0.767810000000     0.592030000000    -0.480789   
O122     O      0.521350000000     0.564830000000     0.617600000000    -0.488191   
O123     O      0.673320000000     0.660740000000     0.509080000000    -0.442209   
O124     O      0.581260000000     0.675440000000     0.629760000000    -0.495008   
O125     O      0.708670000000     0.585080000000     0.507720000000    -0.434182   
O126     O      0.777490000000     0.785200000000     0.530940000000    -0.400475   
O127     O      0.557930000000     0.496920000000     0.563140000000    -0.486215   
O128     O      0.804710000000     0.629990000000     0.606800000000    -0.478902   
O129     O      0.640930000000     0.653640000000     0.727020000000    -0.472467   
O130     O      0.614160000000     0.466300000000     0.665670000000    -0.452018   
O131     O      0.813240000000     0.745370000000     0.625640000000    -0.443373   
O132     O      0.758570000000     0.742510000000     0.696760000000    -0.471275   
O133     O      0.727000000000     0.527790000000     0.660220000000    -0.465218   
O134     O      0.811850000000     0.691340000000     0.533920000000    -0.382486   
O135     O      0.582610000000     0.542770000000     0.713500000000    -0.504661   
O136     O      0.676490000000     0.615270000000     0.618980000000    -0.526791   


