data_structure

_audit_creation_method RASPA-1.0
_audit_creation_date 2023-5-19
_audit_author_name 'Poobodin Mano'

_cell_length_a    38.6161
_cell_length_b    38.6907
_cell_length_c    24.143
_cell_angle_alpha 90
_cell_angle_beta  90
_cell_angle_gamma 90
_cell_volume      36071.7

_symmetry_cell_setting          triclinic
_symmetry_space_group_name_Hall 'P 1'
_symmetry_space_group_name_H-M  'P 1'
_symmetry_Int_Tables_number     1

_symmetry_equiv_pos_as_xyz 'x,y,z'

loop_
_atom_site_label
_atom_site_type_symbol
_atom_site_fract_x
_atom_site_fract_y
_atom_site_fract_z
_atom_site_charge
C1       C      0.367140000000     0.334900000000     0.273190000000     0.380775   
C2       C      0.360060000000     0.020490000000     0.612120000000     0.383494   
C3       C      0.361030000000     0.341360000000     0.598890000000     0.388683   
C4       C      0.367470000000     0.013910000000     0.291820000000     0.378236   
C5       C      0.995750000000     0.015230000000     0.276500000000     0.383106   
C6       C      0.991540000000     0.342040000000     0.587500000000     0.383677   
C7       C      0.990020000000     0.021900000000     0.599860000000     0.376259   
C8       C      0.998390000000     0.335700000000     0.254710000000     0.381078   
C9       C      0.272230000000     0.239460000000     0.347670000000     0.381092   
C10      C      0.086810000000     0.247630000000     0.509390000000     0.384028   
C11      C      0.266430000000     0.246940000000     0.520920000000     0.388835   
C12      C      0.092880000000     0.239240000000     0.330580000000     0.37689    
C13      C      0.091510000000     0.110800000000     0.348480000000     0.38408    
C14      C      0.265580000000     0.115840000000     0.534030000000     0.383131   
C15      C      0.085550000000     0.117810000000     0.524070000000     0.375515   
C16      C      0.271430000000     0.108390000000     0.368650000000     0.382421   
C17      C      0.052250000000     0.029770000000     0.305650000000     0.0270438  
C18      C      0.009270000000     0.073150000000     0.302960000000     0.0312451  
C19      C      0.033500000000     0.097340000000     0.321860000000     0.0303754  
C20      C      0.076690000000     0.054130000000     0.321150000000     0.0269601  
C21      C      0.046170000000     0.037460000000     0.570790000000     0.0275967  
C22      C      0.002950000000     0.080470000000     0.572820000000     0.0309202  
C23      C      0.026920000000     0.104540000000     0.551060000000     0.0298784  
C24      C      0.070360000000     0.061750000000     0.553640000000     0.0283875  
C25      C      0.055970000000     0.318080000000     0.272540000000     0.0317523  
C26      C      0.010750000000     0.277730000000     0.283550000000     0.0307547  
C27      C      0.034600000000     0.253510000000     0.304410000000     0.0299593  
C28      C      0.079870000000     0.293340000000     0.289500000000     0.0263302  
C29      C      0.353490000000     0.072060000000     0.318350000000     0.0302157  
C30      C      0.313570000000     0.026950000000     0.333860000000     0.026335   
C31      C      0.288940000000     0.050850000000     0.351180000000     0.0315934  
C32      C      0.329380000000     0.095920000000     0.339440000000     0.030192   
C33      C      0.304920000000     0.327220000000     0.567880000000     0.0261694  
C34      C      0.347910000000     0.283790000000     0.570490000000     0.0265374  
C35      C      0.324050000000     0.259970000000     0.549620000000     0.0265933  
C36      C      0.280930000000     0.303300000000     0.549700000000     0.0262013  
C37      C      0.323180000000     0.102700000000     0.564440000000     0.0295476  
C38      C      0.279290000000     0.060320000000     0.568330000000     0.0287815  
C39      C      0.303280000000     0.036150000000     0.586380000000     0.0299506  
C40      C      0.346970000000     0.078800000000     0.586170000000     0.0313017  
C41      C      0.071000000000     0.304480000000     0.533700000000     0.0304084  
C42      C      0.028510000000     0.260650000000     0.535880000000     0.0311999  
C43      C      0.004620000000     0.284460000000     0.557520000000     0.0304239  
C44      C      0.046810000000     0.328450000000     0.551690000000     0.0287456  
C45      C      0.328140000000     0.289060000000     0.254790000000     0.0301979  
C46      C      0.340710000000     0.304320000000     0.347350000000     0.0315229  
C47      C      0.317910000000     0.278670000000     0.365970000000     0.0302653  
C48      C      0.302630000000     0.266090000000     0.273420000000     0.0314857  
C49      C      0.367140000000     0.334900000000     0.773190000000     0.380777   
C50      C      0.360060000000     0.020490000000     0.112120000000     0.383491   
C51      C      0.361030000000     0.341360000000     0.098890000000     0.388699   
C52      C      0.367470000000     0.013910000000     0.791820000000     0.378306   
C53      C      0.995750000000     0.015230000000     0.776500000000     0.383103   
C54      C      0.991540000000     0.342040000000     0.087500000000     0.38367    
C55      C      0.990020000000     0.021900000000     0.099860000000     0.376255   
C56      C      0.998390000000     0.335700000000     0.754710000000     0.381081   
C57      C      0.272230000000     0.239460000000     0.847670000000     0.381096   
C58      C      0.086810000000     0.247630000000     0.009390000000     0.383955   
C59      C      0.266430000000     0.246940000000     0.020920000000     0.38877    
C60      C      0.092880000000     0.239240000000     0.830580000000     0.376893   
C61      C      0.091510000000     0.110800000000     0.848480000000     0.384083   
C62      C      0.265580000000     0.115840000000     0.034040000000     0.38308    
C63      C      0.085550000000     0.117810000000     0.024070000000     0.375442   
C64      C      0.271430000000     0.108390000000     0.868650000000     0.382427   
C65      C      0.052250000000     0.029770000000     0.805650000000     0.0270462  
C66      C      0.009270000000     0.073150000000     0.802970000000     0.0312425  
C67      C      0.033500000000     0.097340000000     0.821860000000     0.0303796  
C68      C      0.076690000000     0.054130000000     0.821150000000     0.0269639  
C69      C      0.046170000000     0.037460000000     0.070790000000     0.0275928  
C70      C      0.002950000000     0.080470000000     0.072820000000     0.0309172  
C71      C      0.026920000000     0.104540000000     0.051060000000     0.0298665  
C72      C      0.070360000000     0.061750000000     0.053640000000     0.0283793  
C73      C      0.055970000000     0.318080000000     0.772540000000     0.0317548  
C74      C      0.010750000000     0.277730000000     0.783550000000     0.0307566  
C75      C      0.034600000000     0.253510000000     0.804410000000     0.0299645  
C76      C      0.079870000000     0.293340000000     0.789500000000     0.0263328  
C77      C      0.353490000000     0.072060000000     0.818350000000     0.030223   
C78      C      0.313570000000     0.026950000000     0.833860000000     0.0263408  
C79      C      0.288940000000     0.050850000000     0.851180000000     0.0315975  
C80      C      0.329380000000     0.095920000000     0.839440000000     0.0301953  
C81      C      0.304920000000     0.327220000000     0.067880000000     0.0261611  
C82      C      0.347910000000     0.283790000000     0.070490000000     0.0265328  
C83      C      0.324050000000     0.259970000000     0.049620000000     0.0265797  
C84      C      0.280930000000     0.303300000000     0.049700000000     0.0261926  
C85      C      0.323180000000     0.102700000000     0.064440000000     0.029544   
C86      C      0.279290000000     0.060320000000     0.068330000000     0.0287797  
C87      C      0.303280000000     0.036150000000     0.086380000000     0.0299464  
C88      C      0.346970000000     0.078800000000     0.086170000000     0.0312976  
C89      C      0.071000000000     0.304480000000     0.033700000000     0.0303999  
C90      C      0.028510000000     0.260650000000     0.035880000000     0.0311878  
C91      C      0.004620000000     0.284460000000     0.057520000000     0.0304196  
C92      C      0.046810000000     0.328450000000     0.051690000000     0.0287404  
C93      C      0.328140000000     0.289060000000     0.754790000000     0.0301996  
C94      C      0.340710000000     0.304320000000     0.847350000000     0.0315269  
C95      C      0.317910000000     0.278670000000     0.865970000000     0.0302685  
C96      C      0.302630000000     0.266090000000     0.773420000000     0.0314863  
C97      C      0.367140000000     0.834900000000     0.273190000000     0.380774   
C98      C      0.360060000000     0.520490000000     0.612120000000     0.383472   
C99      C      0.361030000000     0.841360000000     0.598890000000     0.38866    
C100     C      0.367470000000     0.513910000000     0.291820000000     0.378237   
C101     C      0.995750000000     0.515230000000     0.276500000000     0.383106   
C102     C      0.991540000000     0.842040000000     0.587500000000     0.383677   
C103     C      0.990020000000     0.521900000000     0.599860000000     0.376259   
C104     C      0.998390000000     0.835700000000     0.254710000000     0.381076   
C105     C      0.272230000000     0.739470000000     0.347670000000     0.381066   
C106     C      0.086810000000     0.747630000000     0.509390000000     0.384029   
C107     C      0.266430000000     0.746940000000     0.520920000000     0.388836   
C108     C      0.092880000000     0.739250000000     0.330580000000     0.376977   
C109     C      0.091510000000     0.610800000000     0.348480000000     0.38408    
C110     C      0.265580000000     0.615840000000     0.534030000000     0.382986   
C111     C      0.085550000000     0.617810000000     0.524070000000     0.375515   
C112     C      0.271430000000     0.608390000000     0.368650000000     0.382343   
C113     C      0.052250000000     0.529770000000     0.305650000000     0.0270441  
C114     C      0.009270000000     0.573150000000     0.302960000000     0.0312452  
C115     C      0.033500000000     0.597340000000     0.321860000000     0.0303753  
C116     C      0.076690000000     0.554130000000     0.321150000000     0.0269597  
C117     C      0.046170000000     0.537460000000     0.570790000000     0.0275966  
C118     C      0.002950000000     0.580470000000     0.572820000000     0.0309203  
C119     C      0.026920000000     0.604540000000     0.551060000000     0.0298783  
C120     C      0.070360000000     0.561750000000     0.553640000000     0.0283875  
C121     C      0.055970000000     0.818090000000     0.272540000000     0.0317065  
C122     C      0.010750000000     0.777730000000     0.283550000000     0.0307443  
C123     C      0.034600000000     0.753510000000     0.304410000000     0.0299875  
C124     C      0.079870000000     0.793340000000     0.289500000000     0.0263654  
C125     C      0.353490000000     0.572060000000     0.318350000000     0.0302179  
C126     C      0.313570000000     0.526950000000     0.333860000000     0.0263361  
C127     C      0.288940000000     0.550850000000     0.351180000000     0.0315927  
C128     C      0.329380000000     0.595920000000     0.339440000000     0.0301873  
C129     C      0.304920000000     0.827220000000     0.567880000000     0.026167   
C130     C      0.347910000000     0.783790000000     0.570490000000     0.0265369  
C131     C      0.324050000000     0.759970000000     0.549620000000     0.0265941  
C132     C      0.280930000000     0.803300000000     0.549700000000     0.0262018  
C133     C      0.323180000000     0.602700000000     0.564440000000     0.0295379  
C134     C      0.279290000000     0.560320000000     0.568330000000     0.0287769  
C135     C      0.303280000000     0.536150000000     0.586380000000     0.0299514  
C136     C      0.346970000000     0.578800000000     0.586170000000     0.0313051  
C137     C      0.071000000000     0.804480000000     0.533700000000     0.0303993  
C138     C      0.028510000000     0.760650000000     0.535880000000     0.0311988  
C139     C      0.004620000000     0.784460000000     0.557520000000     0.030425   
C140     C      0.046810000000     0.828450000000     0.551690000000     0.0287663  
C141     C      0.328140000000     0.789060000000     0.254790000000     0.0301982  
C142     C      0.340710000000     0.804330000000     0.347350000000     0.0315201  
C143     C      0.317910000000     0.778670000000     0.365970000000     0.0302767  
C144     C      0.302630000000     0.766090000000     0.273420000000     0.0314884  
C145     C      0.367140000000     0.834900000000     0.773190000000     0.380776   
C146     C      0.360060000000     0.520490000000     0.112120000000     0.383469   
C147     C      0.361030000000     0.841360000000     0.098890000000     0.388676   
C148     C      0.367470000000     0.513910000000     0.791820000000     0.378306   
C149     C      0.995750000000     0.515230000000     0.776500000000     0.383104   
C150     C      0.991540000000     0.842040000000     0.087500000000     0.383671   
C151     C      0.990020000000     0.521900000000     0.099860000000     0.376256   
C152     C      0.998390000000     0.835700000000     0.754710000000     0.381078   
C153     C      0.272230000000     0.739470000000     0.847670000000     0.381069   
C154     C      0.086810000000     0.747630000000     0.009390000000     0.383955   
C155     C      0.266430000000     0.746940000000     0.020920000000     0.38877    
C156     C      0.092880000000     0.739250000000     0.830580000000     0.37698    
C157     C      0.091510000000     0.610800000000     0.848480000000     0.384083   
C158     C      0.265580000000     0.615840000000     0.034040000000     0.382935   
C159     C      0.085550000000     0.617810000000     0.024070000000     0.375442   
C160     C      0.271430000000     0.608390000000     0.868650000000     0.382349   
C161     C      0.052250000000     0.529770000000     0.805650000000     0.0270465  
C162     C      0.009270000000     0.573150000000     0.802970000000     0.0312425  
C163     C      0.033500000000     0.597340000000     0.821860000000     0.0303795  
C164     C      0.076690000000     0.554130000000     0.821150000000     0.0269635  
C165     C      0.046170000000     0.537460000000     0.070790000000     0.0275927  
C166     C      0.002950000000     0.580470000000     0.072820000000     0.0309173  
C167     C      0.026920000000     0.604540000000     0.051060000000     0.0298665  
C168     C      0.070360000000     0.561750000000     0.053640000000     0.0283793  
C169     C      0.055970000000     0.818090000000     0.772540000000     0.0317089  
C170     C      0.010750000000     0.777730000000     0.783550000000     0.0307461  
C171     C      0.034600000000     0.753510000000     0.804410000000     0.0299927  
C172     C      0.079870000000     0.793340000000     0.789500000000     0.026368   
C173     C      0.353490000000     0.572060000000     0.818350000000     0.0302252  
C174     C      0.313570000000     0.526950000000     0.833860000000     0.0263418  
C175     C      0.288940000000     0.550850000000     0.851180000000     0.0315968  
C176     C      0.329380000000     0.595920000000     0.839440000000     0.0301907  
C177     C      0.304920000000     0.827220000000     0.067880000000     0.0261588  
C178     C      0.347910000000     0.783790000000     0.070490000000     0.0265323  
C179     C      0.324050000000     0.759970000000     0.049620000000     0.0265805  
C180     C      0.280930000000     0.803300000000     0.049700000000     0.0261931  
C181     C      0.323180000000     0.602700000000     0.064440000000     0.0295342  
C182     C      0.279290000000     0.560320000000     0.068330000000     0.0287751  
C183     C      0.303280000000     0.536150000000     0.086380000000     0.0299471  
C184     C      0.346970000000     0.578800000000     0.086170000000     0.031301   
C185     C      0.071000000000     0.804480000000     0.033700000000     0.0303909  
C186     C      0.028510000000     0.760650000000     0.035880000000     0.0311868  
C187     C      0.004620000000     0.784460000000     0.057520000000     0.0304206  
C188     C      0.046810000000     0.828450000000     0.051690000000     0.0287611  
C189     C      0.328140000000     0.789060000000     0.754790000000     0.0301998  
C190     C      0.340710000000     0.804330000000     0.847350000000     0.0315241  
C191     C      0.317910000000     0.778670000000     0.865970000000     0.0302798  
C192     C      0.302630000000     0.766090000000     0.773420000000     0.031489   
C193     C      0.867140000000     0.334900000000     0.273190000000     0.380759   
C194     C      0.860060000000     0.020490000000     0.612120000000     0.383426   
C195     C      0.861030000000     0.341360000000     0.598890000000     0.388672   
C196     C      0.867470000000     0.013910000000     0.291820000000     0.37824    
C197     C      0.495750000000     0.015230000000     0.276500000000     0.383974   
C198     C      0.491540000000     0.342040000000     0.587500000000     0.383803   
C199     C      0.490020000000     0.021900000000     0.599860000000     0.376612   
C200     C      0.498390000000     0.335700000000     0.254710000000     0.381852   
C201     C      0.772230000000     0.239460000000     0.347670000000     0.381094   
C202     C      0.586810000000     0.247630000000     0.509390000000     0.384025   
C203     C      0.766430000000     0.246940000000     0.520920000000     0.388841   
C204     C      0.592880000000     0.239240000000     0.330580000000     0.376889   
C205     C      0.591510000000     0.110800000000     0.348480000000     0.384079   
C206     C      0.765580000000     0.115840000000     0.534030000000     0.38313    
C207     C      0.585550000000     0.117810000000     0.524070000000     0.375512   
C208     C      0.771430000000     0.108390000000     0.368650000000     0.382496   
C209     C      0.552250000000     0.029770000000     0.305650000000     0.0270325  
C210     C      0.509270000000     0.073150000000     0.302960000000     0.0306622  
C211     C      0.533500000000     0.097340000000     0.321860000000     0.03053    
C212     C      0.576690000000     0.054130000000     0.321150000000     0.0269537  
C213     C      0.546170000000     0.037460000000     0.570790000000     0.0275379  
C214     C      0.502950000000     0.080470000000     0.572820000000     0.0303202  
C215     C      0.526920000000     0.104540000000     0.551060000000     0.0300287  
C216     C      0.570360000000     0.061750000000     0.553640000000     0.028395   
C217     C      0.555970000000     0.318080000000     0.272540000000     0.0317986  
C218     C      0.510750000000     0.277730000000     0.283550000000     0.0301291  
C219     C      0.534600000000     0.253510000000     0.304410000000     0.0301295  
C220     C      0.579870000000     0.293340000000     0.289500000000     0.0263026  
C221     C      0.853490000000     0.072060000000     0.318350000000     0.0302503  
C222     C      0.813580000000     0.026950000000     0.333860000000     0.0263889  
C223     C      0.788950000000     0.050850000000     0.351180000000     0.0316317  
C224     C      0.829380000000     0.095920000000     0.339440000000     0.0301241  
C225     C      0.804920000000     0.327220000000     0.567880000000     0.0261366  
C226     C      0.847910000000     0.283790000000     0.570490000000     0.026528   
C227     C      0.824050000000     0.259970000000     0.549620000000     0.0265928  
C228     C      0.780940000000     0.303300000000     0.549700000000     0.0262552  
C229     C      0.823180000000     0.102700000000     0.564440000000     0.0295546  
C230     C      0.779290000000     0.060320000000     0.568330000000     0.0287613  
C231     C      0.803280000000     0.036150000000     0.586380000000     0.0300066  
C232     C      0.846970000000     0.078800000000     0.586170000000     0.0312405  
C233     C      0.571000000000     0.304480000000     0.533700000000     0.030387   
C234     C      0.528510000000     0.260650000000     0.535880000000     0.0313765  
C235     C      0.504620000000     0.284460000000     0.557520000000     0.0297652  
C236     C      0.546810000000     0.328450000000     0.551690000000     0.0287476  
C237     C      0.828140000000     0.289060000000     0.254790000000     0.0301942  
C238     C      0.840710000000     0.304320000000     0.347350000000     0.031507   
C239     C      0.817910000000     0.278670000000     0.365970000000     0.0302641  
C240     C      0.802620000000     0.266090000000     0.273420000000     0.031486   
C241     C      0.867140000000     0.334900000000     0.773190000000     0.380761   
C242     C      0.860060000000     0.020490000000     0.112120000000     0.383424   
C243     C      0.861030000000     0.341360000000     0.098890000000     0.388688   
C244     C      0.867470000000     0.013910000000     0.791820000000     0.37831    
C245     C      0.495750000000     0.015230000000     0.776500000000     0.383971   
C246     C      0.491540000000     0.342040000000     0.087500000000     0.383797   
C247     C      0.490020000000     0.021900000000     0.099860000000     0.376609   
C248     C      0.498390000000     0.335700000000     0.754710000000     0.381854   
C249     C      0.772230000000     0.239460000000     0.847670000000     0.381097   
C250     C      0.586810000000     0.247630000000     0.009390000000     0.383951   
C251     C      0.766430000000     0.246940000000     0.020920000000     0.388775   
C252     C      0.592880000000     0.239240000000     0.830580000000     0.376891   
C253     C      0.591510000000     0.110800000000     0.848480000000     0.384082   
C254     C      0.765580000000     0.115840000000     0.034040000000     0.383079   
C255     C      0.585550000000     0.117810000000     0.024070000000     0.375439   
C256     C      0.771430000000     0.108390000000     0.868650000000     0.382502   
C257     C      0.552250000000     0.029770000000     0.805650000000     0.0270349  
C258     C      0.509270000000     0.073150000000     0.802970000000     0.0306595  
C259     C      0.533500000000     0.097340000000     0.821860000000     0.0305343  
C260     C      0.576690000000     0.054130000000     0.821150000000     0.0269576  
C261     C      0.546170000000     0.037460000000     0.070790000000     0.027534   
C262     C      0.502950000000     0.080470000000     0.072820000000     0.0303172  
C263     C      0.526920000000     0.104540000000     0.051060000000     0.0300169  
C264     C      0.570360000000     0.061750000000     0.053640000000     0.0283869  
C265     C      0.555970000000     0.318080000000     0.772540000000     0.031801   
C266     C      0.510750000000     0.277730000000     0.783550000000     0.030131   
C267     C      0.534600000000     0.253510000000     0.804410000000     0.0301346  
C268     C      0.579870000000     0.293340000000     0.789500000000     0.0263052  
C269     C      0.853490000000     0.072060000000     0.818350000000     0.0302576  
C270     C      0.813580000000     0.026950000000     0.833860000000     0.0263947  
C271     C      0.788950000000     0.050850000000     0.851180000000     0.0316358  
C272     C      0.829380000000     0.095920000000     0.839440000000     0.0301274  
C273     C      0.804920000000     0.327220000000     0.067880000000     0.0261283  
C274     C      0.847910000000     0.283790000000     0.070490000000     0.0265234  
C275     C      0.824050000000     0.259970000000     0.049620000000     0.0265791  
C276     C      0.780940000000     0.303300000000     0.049700000000     0.0262464  
C277     C      0.823180000000     0.102700000000     0.064440000000     0.0295509  
C278     C      0.779290000000     0.060320000000     0.068330000000     0.0287595  
C279     C      0.803280000000     0.036150000000     0.086380000000     0.0300023  
C280     C      0.846970000000     0.078800000000     0.086170000000     0.0312364  
C281     C      0.571000000000     0.304480000000     0.033700000000     0.0303785  
C282     C      0.528510000000     0.260650000000     0.035880000000     0.0313643  
C283     C      0.504620000000     0.284460000000     0.057520000000     0.029761   
C284     C      0.546810000000     0.328450000000     0.051690000000     0.0287425  
C285     C      0.828140000000     0.289060000000     0.754790000000     0.0301958  
C286     C      0.840710000000     0.304320000000     0.847350000000     0.031511   
C287     C      0.817910000000     0.278670000000     0.865970000000     0.0302672  
C288     C      0.802620000000     0.266090000000     0.773420000000     0.0314866  
C289     C      0.867140000000     0.834900000000     0.273190000000     0.380758   
C290     C      0.860060000000     0.520490000000     0.612120000000     0.383405   
C291     C      0.861030000000     0.841360000000     0.598890000000     0.388649   
C292     C      0.867470000000     0.513910000000     0.291820000000     0.378241   
C293     C      0.495750000000     0.515230000000     0.276500000000     0.383974   
C294     C      0.491540000000     0.842040000000     0.587500000000     0.383804   
C295     C      0.490020000000     0.521900000000     0.599860000000     0.376612   
C296     C      0.498390000000     0.835700000000     0.254710000000     0.381849   
C297     C      0.772230000000     0.739470000000     0.347670000000     0.381067   
C298     C      0.586810000000     0.747630000000     0.509390000000     0.384025   
C299     C      0.766430000000     0.746940000000     0.520920000000     0.388841   
C300     C      0.592880000000     0.739250000000     0.330580000000     0.376975   
C301     C      0.591510000000     0.610800000000     0.348480000000     0.384079   
C302     C      0.765580000000     0.615840000000     0.534030000000     0.382985   
C303     C      0.585550000000     0.617810000000     0.524070000000     0.375512   
C304     C      0.771430000000     0.608390000000     0.368650000000     0.382418   
C305     C      0.552250000000     0.529770000000     0.305650000000     0.0270329  
C306     C      0.509270000000     0.573150000000     0.302960000000     0.0306621  
C307     C      0.533500000000     0.597340000000     0.321860000000     0.03053    
C308     C      0.576690000000     0.554130000000     0.321150000000     0.0269534  
C309     C      0.546170000000     0.537460000000     0.570790000000     0.0275378  
C310     C      0.502950000000     0.580470000000     0.572820000000     0.0303202  
C311     C      0.526920000000     0.604540000000     0.551060000000     0.0300287  
C312     C      0.570360000000     0.561750000000     0.553640000000     0.028395   
C313     C      0.555970000000     0.818090000000     0.272540000000     0.0317526  
C314     C      0.510750000000     0.777730000000     0.283550000000     0.0301186  
C315     C      0.534600000000     0.753510000000     0.304410000000     0.0301577  
C316     C      0.579870000000     0.793340000000     0.289500000000     0.0263379  
C317     C      0.853490000000     0.572060000000     0.318350000000     0.0302525  
C318     C      0.813580000000     0.526950000000     0.333860000000     0.02639    
C319     C      0.788950000000     0.550850000000     0.351180000000     0.031631   
C320     C      0.829380000000     0.595920000000     0.339440000000     0.0301195  
C321     C      0.804920000000     0.827220000000     0.567880000000     0.0261342  
C322     C      0.847910000000     0.783790000000     0.570490000000     0.0265274  
C323     C      0.824050000000     0.759970000000     0.549620000000     0.0265936  
C324     C      0.780940000000     0.803300000000     0.549700000000     0.0262556  
C325     C      0.823180000000     0.602700000000     0.564440000000     0.0295448  
C326     C      0.779290000000     0.560320000000     0.568330000000     0.0287567  
C327     C      0.803280000000     0.536150000000     0.586380000000     0.0300073  
C328     C      0.846970000000     0.578800000000     0.586170000000     0.031244   
C329     C      0.571000000000     0.804480000000     0.533700000000     0.0303779  
C330     C      0.528510000000     0.760650000000     0.535880000000     0.0313755  
C331     C      0.504620000000     0.784460000000     0.557520000000     0.0297663  
C332     C      0.546810000000     0.828450000000     0.551690000000     0.0287683  
C333     C      0.828140000000     0.789060000000     0.254790000000     0.0301944  
C334     C      0.840710000000     0.804330000000     0.347350000000     0.0315043  
C335     C      0.817910000000     0.778670000000     0.365970000000     0.0302754  
C336     C      0.802620000000     0.766090000000     0.273420000000     0.0314887  
C337     C      0.867140000000     0.834900000000     0.773190000000     0.38076    
C338     C      0.860060000000     0.520490000000     0.112120000000     0.383402   
C339     C      0.861030000000     0.841360000000     0.098890000000     0.388665   
C340     C      0.867470000000     0.513910000000     0.791820000000     0.37831    
C341     C      0.495750000000     0.515230000000     0.776500000000     0.383972   
C342     C      0.491540000000     0.842040000000     0.087500000000     0.383797   
C343     C      0.490020000000     0.521900000000     0.099860000000     0.376609   
C344     C      0.498390000000     0.835700000000     0.754710000000     0.381852   
C345     C      0.772230000000     0.739470000000     0.847670000000     0.38107    
C346     C      0.586810000000     0.747630000000     0.009390000000     0.383951   
C347     C      0.766430000000     0.746940000000     0.020920000000     0.388776   
C348     C      0.592880000000     0.739250000000     0.830580000000     0.376978   
C349     C      0.591510000000     0.610800000000     0.848480000000     0.384082   
C350     C      0.765580000000     0.615840000000     0.034040000000     0.382934   
C351     C      0.585550000000     0.617810000000     0.024070000000     0.375439   
C352     C      0.771430000000     0.608390000000     0.868650000000     0.382424   
C353     C      0.552250000000     0.529770000000     0.805650000000     0.0270352  
C354     C      0.509270000000     0.573150000000     0.802970000000     0.0306594  
C355     C      0.533500000000     0.597340000000     0.821860000000     0.0305343  
C356     C      0.576690000000     0.554130000000     0.821150000000     0.0269572  
C357     C      0.546170000000     0.537460000000     0.070790000000     0.0275339  
C358     C      0.502950000000     0.580470000000     0.072820000000     0.0303172  
C359     C      0.526920000000     0.604540000000     0.051060000000     0.0300169  
C360     C      0.570360000000     0.561750000000     0.053640000000     0.0283869  
C361     C      0.555970000000     0.818090000000     0.772540000000     0.0317551  
C362     C      0.510750000000     0.777730000000     0.783550000000     0.0301205  
C363     C      0.534600000000     0.753510000000     0.804410000000     0.0301629  
C364     C      0.579870000000     0.793340000000     0.789500000000     0.0263404  
C365     C      0.853490000000     0.572060000000     0.818350000000     0.0302598  
C366     C      0.813580000000     0.526950000000     0.833860000000     0.0263957  
C367     C      0.788950000000     0.550850000000     0.851180000000     0.0316351  
C368     C      0.829380000000     0.595920000000     0.839440000000     0.0301228  
C369     C      0.804920000000     0.827220000000     0.067880000000     0.0261259  
C370     C      0.847910000000     0.783790000000     0.070490000000     0.0265228  
C371     C      0.824050000000     0.759970000000     0.049620000000     0.0265799  
C372     C      0.780940000000     0.803300000000     0.049700000000     0.0262469  
C373     C      0.823180000000     0.602700000000     0.064440000000     0.0295412  
C374     C      0.779290000000     0.560320000000     0.068330000000     0.0287549  
C375     C      0.803280000000     0.536150000000     0.086380000000     0.0300031  
C376     C      0.846970000000     0.578800000000     0.086170000000     0.0312398  
C377     C      0.571000000000     0.804480000000     0.033700000000     0.0303695  
C378     C      0.528510000000     0.760650000000     0.035880000000     0.0313633  
C379     C      0.504620000000     0.784460000000     0.057520000000     0.029762   
C380     C      0.546810000000     0.828450000000     0.051690000000     0.0287631  
C381     C      0.828140000000     0.789060000000     0.754790000000     0.0301961  
C382     C      0.840710000000     0.804330000000     0.847350000000     0.0315083  
C383     C      0.817910000000     0.778670000000     0.865970000000     0.0302786  
C384     C      0.802620000000     0.766090000000     0.773420000000     0.0314893  
H1       H      0.353290000000     0.975040000000     0.699680000000     0.207004   
H2       H      0.923720000000     0.380200000000     0.559570000000     0.196923   
H3       H      0.003820000000     0.976240000000     0.182830000000     0.206955   
H4       H      0.934510000000     0.370750000000     0.302850000000     0.205022   
H5       H      0.374520000000     0.409020000000     0.497020000000     0.128502   
H6       H      0.956120000000     0.916500000000     0.479470000000     0.189515   
H7       H      0.047470000000     0.433180000000     0.610840000000     0.131482   
H8       H      0.057770000000     0.930460000000     0.240160000000     0.189122   
H9       H      0.971710000000     0.938720000000     0.377600000000     0.133921   
H10      H      0.404650000000     0.417400000000     0.394120000000     0.187965   
H11      H      0.312510000000     0.420520000000     0.240700000000     0.133961   
H12      H      0.299880000000     0.933890000000     0.635030000000     0.188986   
H13      H      0.054000000000     0.924360000000     0.308530000000     0.205685   
H14      H      0.362090000000     0.425830000000     0.394600000000     0.21461    
H15      H      0.302990000000     0.430080000000     0.566160000000     0.203125   
H16      H      0.980230000000     0.952490000000     0.478670000000     0.209243   
H17      H      0.132180000000     0.253730000000     0.421320000000     0.206944   
H18      H      0.227640000000     0.184930000000     0.562470000000     0.198324   
H19      H      0.131070000000     0.103580000000     0.441960000000     0.206198   
H20      H      0.236250000000     0.171560000000     0.319340000000     0.206303   
H21      H      0.198950000000     0.234270000000     0.623750000000     0.129931   
H22      H      0.152970000000     0.145870000000     0.643420000000     0.202637   
H23      H      0.173730000000     0.060720000000     0.524590000000     0.132038   
H24      H      0.176680000000     0.049190000000     0.385640000000     0.189329   
H25      H      0.164210000000     0.125400000000     0.246270000000     0.14088    
H26      H      0.183510000000     0.199330000000     0.227600000000     0.192698   
H27      H      0.185840000000     0.294200000000     0.377140000000     0.133445   
H28      H      0.173490000000     0.307650000000     0.483380000000     0.188923   
H29      H      0.182350000000     0.052310000000     0.317090000000     0.205176   
H30      H      0.186350000000     0.242530000000     0.226070000000     0.213894   
H31      H      0.177570000000     0.305490000000     0.552300000000     0.203522   
H32      H      0.196210000000     0.142730000000     0.645230000000     0.197775   
H33      H      0.061110000000     0.003420000000     0.299720000000     0.0320035  
H34      H      0.982910000000     0.081670000000     0.295720000000     0.0398085  
H35      H      0.025100000000     0.123780000000     0.328260000000     0.0402444  
H36      H      0.102970000000     0.045180000000     0.327900000000     0.0316053  
H37      H      0.055300000000     0.011290000000     0.577730000000     0.035826   
H38      H      0.976560000000     0.088760000000     0.580410000000     0.0376597  
H39      H      0.018430000000     0.130790000000     0.543230000000     0.0381831  
H40      H      0.096660000000     0.052820000000     0.546900000000     0.0350597  
H41      H      0.065740000000     0.343320000000     0.260690000000     0.0356221  
H42      H      0.983610000000     0.270630000000     0.281760000000     0.0371202  
H43      H      0.025080000000     0.228440000000     0.317440000000     0.0397628  
H44      H      0.106860000000     0.301050000000     0.291020000000     0.0398396  
H45      H      0.378550000000     0.081520000000     0.304970000000     0.0398465  
H46      H      0.305800000000     0.000030000000     0.332520000000     0.0392787  
H47      H      0.263720000000     0.041140000000     0.363440000000     0.0354159  
H48      H      0.336540000000     0.123000000000     0.341030000000     0.0376462  
H49      H      0.295910000000     0.353450000000     0.574480000000     0.0340496  
H50      H      0.374140000000     0.275120000000     0.578450000000     0.0383088  
H51      H      0.332560000000     0.233610000000     0.542730000000     0.0381941  
H52      H      0.254820000000     0.312450000000     0.542030000000     0.0341237  
H53      H      0.332040000000     0.128740000000     0.555760000000     0.0380962  
H54      H      0.252900000000     0.051550000000     0.562090000000     0.0396127  
H55      H      0.294020000000     0.010140000000     0.594360000000     0.0327427  
H56      H      0.373510000000     0.086970000000     0.592810000000     0.0389238  
H57      H      0.096940000000     0.313770000000     0.524940000000     0.0328071  
H58      H      0.020430000000     0.234060000000     0.530060000000     0.0390416  
H59      H      0.978660000000     0.275550000000     0.567000000000     0.0378232  
H60      H      0.055520000000     0.354880000000     0.557130000000     0.0414022  
H61      H      0.331470000000     0.292480000000     0.210500000000     0.0399924  
H62      H      0.354650000000     0.319650000000     0.377670000000     0.0293853  
H63      H      0.314550000000     0.275310000000     0.410270000000     0.0402648  
H64      H      0.287340000000     0.252090000000     0.243110000000     0.0291336  
H65      H      0.353290000000     0.975040000000     0.199680000000     0.207007   
H66      H      0.923720000000     0.380200000000     0.059570000000     0.197026   
H67      H      0.003820000000     0.976240000000     0.682830000000     0.206963   
H68      H      0.934510000000     0.370750000000     0.802850000000     0.205028   
H69      H      0.374520000000     0.409020000000     0.997020000000     0.128565   
H70      H      0.956120000000     0.916500000000     0.979470000000     0.189523   
H71      H      0.047470000000     0.433180000000     0.110830000000     0.131564   
H72      H      0.057770000000     0.930460000000     0.740160000000     0.18912    
H73      H      0.971710000000     0.938720000000     0.877600000000     0.133903   
H74      H      0.404650000000     0.417400000000     0.894120000000     0.187974   
H75      H      0.312510000000     0.420520000000     0.740700000000     0.133961   
H76      H      0.299880000000     0.933890000000     0.135030000000     0.188984   
H77      H      0.054000000000     0.924360000000     0.808530000000     0.205695   
H78      H      0.362090000000     0.425830000000     0.894600000000     0.214622   
H79      H      0.302990000000     0.430080000000     0.066160000000     0.203115   
H80      H      0.980230000000     0.952490000000     0.978670000000     0.209253   
H81      H      0.132180000000     0.253730000000     0.921320000000     0.206953   
H82      H      0.227640000000     0.184930000000     0.062460000000     0.198444   
H83      H      0.131070000000     0.103580000000     0.941960000000     0.20621    
H84      H      0.236250000000     0.171560000000     0.819340000000     0.206303   
H85      H      0.198950000000     0.234270000000     0.123750000000     0.129925   
H86      H      0.152970000000     0.145870000000     0.143420000000     0.202636   
H87      H      0.173730000000     0.060720000000     0.024590000000     0.132021   
H88      H      0.176680000000     0.049190000000     0.885640000000     0.189341   
H89      H      0.164210000000     0.125400000000     0.746270000000     0.14088    
H90      H      0.183510000000     0.199330000000     0.727600000000     0.192698   
H91      H      0.185840000000     0.294200000000     0.877140000000     0.133453   
H92      H      0.173490000000     0.307650000000     0.983380000000     0.188987   
H93      H      0.182350000000     0.052310000000     0.817090000000     0.205178   
H94      H      0.186350000000     0.242530000000     0.726070000000     0.213895   
H95      H      0.177570000000     0.305490000000     0.052300000000     0.203531   
H96      H      0.196210000000     0.142730000000     0.145230000000     0.197774   
H97      H      0.061110000000     0.003420000000     0.799720000000     0.0320066  
H98      H      0.982910000000     0.081670000000     0.795720000000     0.0398145  
H99      H      0.025100000000     0.123780000000     0.828260000000     0.0402474  
H100     H      0.102970000000     0.045180000000     0.827900000000     0.0316087  
H101     H      0.055300000000     0.011290000000     0.077730000000     0.0358209  
H102     H      0.976560000000     0.088760000000     0.080410000000     0.0376542  
H103     H      0.018430000000     0.130790000000     0.043230000000     0.0381724  
H104     H      0.096660000000     0.052820000000     0.046900000000     0.0350537  
H105     H      0.065740000000     0.343320000000     0.760690000000     0.035624   
H106     H      0.983610000000     0.270630000000     0.781760000000     0.0371232  
H107     H      0.025080000000     0.228440000000     0.817450000000     0.0397676  
H108     H      0.106860000000     0.301050000000     0.791020000000     0.0398419  
H109     H      0.378550000000     0.081520000000     0.804970000000     0.0398503  
H110     H      0.305800000000     0.000030000000     0.832520000000     0.0392814  
H111     H      0.263720000000     0.041140000000     0.863440000000     0.0354224  
H112     H      0.336540000000     0.123000000000     0.841030000000     0.0376504  
H113     H      0.295910000000     0.353450000000     0.074480000000     0.0340463  
H114     H      0.374140000000     0.275120000000     0.078450000000     0.0383036  
H115     H      0.332560000000     0.233610000000     0.042730000000     0.0381815  
H116     H      0.254820000000     0.312450000000     0.042030000000     0.0341161  
H117     H      0.332040000000     0.128740000000     0.055760000000     0.0380867  
H118     H      0.252900000000     0.051550000000     0.062090000000     0.0396078  
H119     H      0.294020000000     0.010140000000     0.094360000000     0.0327398  
H120     H      0.373510000000     0.086970000000     0.092810000000     0.0389197  
H121     H      0.096940000000     0.313770000000     0.024940000000     0.0327983  
H122     H      0.020430000000     0.234060000000     0.030060000000     0.0390294  
H123     H      0.978660000000     0.275550000000     0.067010000000     0.0378202  
H124     H      0.055520000000     0.354880000000     0.057130000000     0.0413958  
H125     H      0.331470000000     0.292480000000     0.710500000000     0.0399904  
H126     H      0.354650000000     0.319650000000     0.877670000000     0.029393   
H127     H      0.314550000000     0.275310000000     0.910270000000     0.0402787  
H128     H      0.287340000000     0.252090000000     0.743110000000     0.0291344  
H129     H      0.353290000000     0.475040000000     0.699680000000     0.206997   
H130     H      0.923720000000     0.880200000000     0.559570000000     0.196917   
H131     H      0.003820000000     0.476240000000     0.182830000000     0.206953   
H132     H      0.934510000000     0.870750000000     0.302850000000     0.20502    
H133     H      0.374520000000     0.909020000000     0.497020000000     0.128511   
H134     H      0.956120000000     0.416500000000     0.479470000000     0.189513   
H135     H      0.047470000000     0.933180000000     0.610840000000     0.13148    
H136     H      0.057770000000     0.430470000000     0.240160000000     0.189091   
H137     H      0.971710000000     0.438720000000     0.377600000000     0.133917   
H138     H      0.404650000000     0.917390000000     0.394120000000     0.18792    
H139     H      0.312510000000     0.920520000000     0.240700000000     0.133958   
H140     H      0.299880000000     0.433900000000     0.635030000000     0.188967   
H141     H      0.054000000000     0.424360000000     0.308530000000     0.205676   
H142     H      0.362090000000     0.925830000000     0.394600000000     0.214596   
H143     H      0.302990000000     0.930080000000     0.566160000000     0.203131   
H144     H      0.980230000000     0.452490000000     0.478670000000     0.209242   
H145     H      0.132180000000     0.753730000000     0.421320000000     0.20694    
H146     H      0.227640000000     0.684920000000     0.562470000000     0.198345   
H147     H      0.131070000000     0.603580000000     0.441960000000     0.206198   
H148     H      0.236250000000     0.671560000000     0.319340000000     0.206303   
H149     H      0.198950000000     0.734270000000     0.623750000000     0.129942   
H150     H      0.152970000000     0.645870000000     0.643420000000     0.202639   
H151     H      0.173730000000     0.560720000000     0.524590000000     0.132038   
H152     H      0.176680000000     0.549190000000     0.385640000000     0.18933    
H153     H      0.164210000000     0.625400000000     0.246270000000     0.140882   
H154     H      0.183510000000     0.699330000000     0.227600000000     0.192641   
H155     H      0.185840000000     0.794200000000     0.377140000000     0.133437   
H156     H      0.173490000000     0.807640000000     0.483380000000     0.189041   
H157     H      0.182350000000     0.552310000000     0.317090000000     0.205177   
H158     H      0.186350000000     0.742540000000     0.226070000000     0.213705   
H159     H      0.177570000000     0.805490000000     0.552300000000     0.203569   
H160     H      0.196210000000     0.642730000000     0.645230000000     0.197775   
H161     H      0.061110000000     0.503420000000     0.299720000000     0.0320008  
H162     H      0.982910000000     0.581670000000     0.295720000000     0.0398083  
H163     H      0.025100000000     0.623780000000     0.328260000000     0.0402434  
H164     H      0.102970000000     0.545180000000     0.327900000000     0.0316054  
H165     H      0.055300000000     0.511290000000     0.577730000000     0.0358259  
H166     H      0.976560000000     0.588760000000     0.580410000000     0.0376597  
H167     H      0.018430000000     0.630790000000     0.543230000000     0.0381831  
H168     H      0.096660000000     0.552820000000     0.546900000000     0.0350598  
H169     H      0.065740000000     0.843320000000     0.260690000000     0.0356272  
H170     H      0.983610000000     0.770630000000     0.281760000000     0.0371228  
H171     H      0.025080000000     0.728440000000     0.317440000000     0.0397564  
H172     H      0.106860000000     0.801050000000     0.291020000000     0.0398256  
H173     H      0.378550000000     0.581520000000     0.304970000000     0.0398462  
H174     H      0.305800000000     0.500030000000     0.332520000000     0.0392786  
H175     H      0.263720000000     0.541140000000     0.363440000000     0.0354247  
H176     H      0.336540000000     0.623000000000     0.341030000000     0.0376491  
H177     H      0.295910000000     0.853450000000     0.574480000000     0.0340472  
H178     H      0.374140000000     0.775120000000     0.578450000000     0.0383096  
H179     H      0.332560000000     0.733610000000     0.542730000000     0.0381954  
H180     H      0.254820000000     0.812450000000     0.542030000000     0.0341223  
H181     H      0.332040000000     0.628740000000     0.555760000000     0.0380992  
H182     H      0.252900000000     0.551550000000     0.562090000000     0.0396153  
H183     H      0.294020000000     0.510140000000     0.594360000000     0.0327399  
H184     H      0.373510000000     0.586970000000     0.592810000000     0.0389237  
H185     H      0.096940000000     0.813770000000     0.524940000000     0.0328077  
H186     H      0.020430000000     0.734060000000     0.530060000000     0.0390419  
H187     H      0.978660000000     0.775550000000     0.567000000000     0.037823   
H188     H      0.055520000000     0.854890000000     0.557130000000     0.0413998  
H189     H      0.331470000000     0.792480000000     0.210500000000     0.0399924  
H190     H      0.354650000000     0.819650000000     0.377670000000     0.0293807  
H191     H      0.314550000000     0.775310000000     0.410270000000     0.0402567  
H192     H      0.287340000000     0.752100000000     0.243110000000     0.0291364  
H193     H      0.353290000000     0.475040000000     0.199680000000     0.207      
H194     H      0.923720000000     0.880200000000     0.059570000000     0.197019   
H195     H      0.003820000000     0.476240000000     0.682830000000     0.206961   
H196     H      0.934510000000     0.870750000000     0.802850000000     0.205026   
H197     H      0.374520000000     0.909020000000     0.997020000000     0.128574   
H198     H      0.956120000000     0.416500000000     0.979470000000     0.189521   
H199     H      0.047470000000     0.933180000000     0.110830000000     0.131562   
H200     H      0.057770000000     0.430470000000     0.740160000000     0.189089   
H201     H      0.971710000000     0.438720000000     0.877600000000     0.1339     
H202     H      0.404650000000     0.917390000000     0.894120000000     0.187928   
H203     H      0.312510000000     0.920520000000     0.740700000000     0.133958   
H204     H      0.299880000000     0.433900000000     0.135030000000     0.188965   
H205     H      0.054000000000     0.424360000000     0.808530000000     0.205686   
H206     H      0.362090000000     0.925830000000     0.894600000000     0.214608   
H207     H      0.302990000000     0.930080000000     0.066160000000     0.203121   
H208     H      0.980230000000     0.452490000000     0.978670000000     0.209252   
H209     H      0.132180000000     0.753730000000     0.921320000000     0.206949   
H210     H      0.227640000000     0.684920000000     0.062460000000     0.198465   
H211     H      0.131070000000     0.603580000000     0.941960000000     0.20621    
H212     H      0.236250000000     0.671560000000     0.819340000000     0.206303   
H213     H      0.198950000000     0.734270000000     0.123750000000     0.129936   
H214     H      0.152970000000     0.645870000000     0.143420000000     0.202638   
H215     H      0.173730000000     0.560720000000     0.024590000000     0.132021   
H216     H      0.176680000000     0.549190000000     0.885640000000     0.189342   
H217     H      0.164210000000     0.625400000000     0.746270000000     0.140881   
H218     H      0.183510000000     0.699330000000     0.727600000000     0.192641   
H219     H      0.185840000000     0.794200000000     0.877140000000     0.133445   
H220     H      0.173490000000     0.807640000000     0.983380000000     0.189105   
H221     H      0.182350000000     0.552310000000     0.817090000000     0.205179   
H222     H      0.186350000000     0.742540000000     0.726070000000     0.213706   
H223     H      0.177570000000     0.805490000000     0.052300000000     0.203578   
H224     H      0.196210000000     0.642730000000     0.145230000000     0.197774   
H225     H      0.061110000000     0.503420000000     0.799720000000     0.0320038  
H226     H      0.982910000000     0.581670000000     0.795720000000     0.0398144  
H227     H      0.025100000000     0.623780000000     0.828260000000     0.0402464  
H228     H      0.102970000000     0.545180000000     0.827900000000     0.0316089  
H229     H      0.055300000000     0.511290000000     0.077730000000     0.0358208  
H230     H      0.976560000000     0.588760000000     0.080410000000     0.0376542  
H231     H      0.018430000000     0.630790000000     0.043230000000     0.0381724  
H232     H      0.096660000000     0.552820000000     0.046900000000     0.0350539  
H233     H      0.065740000000     0.843320000000     0.760690000000     0.0356291  
H234     H      0.983610000000     0.770630000000     0.781760000000     0.0371259  
H235     H      0.025080000000     0.728440000000     0.817450000000     0.0397612  
H236     H      0.106860000000     0.801050000000     0.791020000000     0.039828   
H237     H      0.378550000000     0.581520000000     0.804970000000     0.0398499  
H238     H      0.305800000000     0.500030000000     0.832520000000     0.0392813  
H239     H      0.263720000000     0.541140000000     0.863440000000     0.0354312  
H240     H      0.336540000000     0.623000000000     0.841030000000     0.0376533  
H241     H      0.295910000000     0.853450000000     0.074480000000     0.0340439  
H242     H      0.374140000000     0.775120000000     0.078450000000     0.0383044  
H243     H      0.332560000000     0.733610000000     0.042730000000     0.0381828  
H244     H      0.254820000000     0.812450000000     0.042030000000     0.0341148  
H245     H      0.332040000000     0.628740000000     0.055760000000     0.0380897  
H246     H      0.252900000000     0.551550000000     0.062090000000     0.0396104  
H247     H      0.294020000000     0.510140000000     0.094360000000     0.032737   
H248     H      0.373510000000     0.586970000000     0.092810000000     0.0389195  
H249     H      0.096940000000     0.813770000000     0.024940000000     0.032799   
H250     H      0.020430000000     0.734060000000     0.030060000000     0.0390297  
H251     H      0.978660000000     0.775550000000     0.067010000000     0.03782    
H252     H      0.055520000000     0.854890000000     0.057130000000     0.0413934  
H253     H      0.331470000000     0.792480000000     0.710500000000     0.0399904  
H254     H      0.354650000000     0.819650000000     0.877670000000     0.0293884  
H255     H      0.314550000000     0.775310000000     0.910270000000     0.0402707  
H256     H      0.287340000000     0.752100000000     0.743110000000     0.0291373  
H257     H      0.853290000000     0.975040000000     0.699680000000     0.207004   
H258     H      0.423720000000     0.380200000000     0.559570000000     0.196944   
H259     H      0.503820000000     0.976240000000     0.182830000000     0.206528   
H260     H      0.434510000000     0.370750000000     0.302850000000     0.205077   
H261     H      0.874520000000     0.409020000000     0.497020000000     0.1285     
H262     H      0.456120000000     0.916500000000     0.479470000000     0.189519   
H263     H      0.547470000000     0.433180000000     0.610840000000     0.131446   
H264     H      0.557770000000     0.930460000000     0.240160000000     0.18911    
H265     H      0.471720000000     0.938720000000     0.377600000000     0.134032   
H266     H      0.904650000000     0.417400000000     0.394120000000     0.187956   
H267     H      0.812510000000     0.420520000000     0.240700000000     0.133962   
H268     H      0.799880000000     0.933890000000     0.635030000000     0.188989   
H269     H      0.554000000000     0.924360000000     0.308530000000     0.205659   
H270     H      0.862090000000     0.425830000000     0.394600000000     0.214608   
H271     H      0.802990000000     0.430080000000     0.566160000000     0.203127   
H272     H      0.480240000000     0.952490000000     0.478670000000     0.209238   
H273     H      0.632180000000     0.253730000000     0.421320000000     0.206941   
H274     H      0.727640000000     0.184930000000     0.562470000000     0.198453   
H275     H      0.631070000000     0.103580000000     0.441960000000     0.206194   
H276     H      0.736250000000     0.171560000000     0.319340000000     0.206304   
H277     H      0.698960000000     0.234270000000     0.623750000000     0.129647   
H278     H      0.652970000000     0.145870000000     0.643420000000     0.202632   
H279     H      0.673720000000     0.060720000000     0.524590000000     0.132038   
H280     H      0.676680000000     0.049190000000     0.385640000000     0.189328   
H281     H      0.664210000000     0.125400000000     0.246270000000     0.140878   
H282     H      0.683510000000     0.199330000000     0.227600000000     0.192701   
H283     H      0.685840000000     0.294200000000     0.377140000000     0.133446   
H284     H      0.673490000000     0.307650000000     0.483380000000     0.188922   
H285     H      0.682350000000     0.052310000000     0.317090000000     0.205176   
H286     H      0.686350000000     0.242530000000     0.226070000000     0.2139     
H287     H      0.677570000000     0.305490000000     0.552300000000     0.203518   
H288     H      0.696210000000     0.142730000000     0.645230000000     0.197774   
H289     H      0.561110000000     0.003420000000     0.299720000000     0.0319676  
H290     H      0.482910000000     0.081670000000     0.295720000000     0.0402137  
H291     H      0.525100000000     0.123780000000     0.328260000000     0.0401145  
H292     H      0.602970000000     0.045180000000     0.327900000000     0.0315991  
H293     H      0.555300000000     0.011290000000     0.577730000000     0.0357628  
H294     H      0.476560000000     0.088760000000     0.580410000000     0.0380687  
H295     H      0.518430000000     0.130790000000     0.543230000000     0.038049   
H296     H      0.596660000000     0.052820000000     0.546900000000     0.0350463  
H297     H      0.565740000000     0.343320000000     0.260690000000     0.0355652  
H298     H      0.483610000000     0.270630000000     0.281760000000     0.0375327  
H299     H      0.525080000000     0.228440000000     0.317440000000     0.0396278  
H300     H      0.606860000000     0.301050000000     0.291020000000     0.0398401  
H301     H      0.878560000000     0.081520000000     0.304970000000     0.0398112  
H302     H      0.805790000000     0.000030000000     0.332520000000     0.0392523  
H303     H      0.763720000000     0.041140000000     0.363440000000     0.0354128  
H304     H      0.836540000000     0.123000000000     0.341030000000     0.0376474  
H305     H      0.795910000000     0.353450000000     0.574480000000     0.0340606  
H306     H      0.874140000000     0.275120000000     0.578450000000     0.0382838  
H307     H      0.832560000000     0.233610000000     0.542730000000     0.038179   
H308     H      0.754820000000     0.312450000000     0.542030000000     0.0341142  
H309     H      0.832030000000     0.128740000000     0.555760000000     0.0380851  
H310     H      0.752900000000     0.051550000000     0.562090000000     0.0396222  
H311     H      0.794020000000     0.010140000000     0.594360000000     0.0327295  
H312     H      0.873500000000     0.086970000000     0.592810000000     0.0389091  
H313     H      0.596940000000     0.313770000000     0.524940000000     0.0328008  
H314     H      0.520430000000     0.234060000000     0.530060000000     0.0389027  
H315     H      0.478660000000     0.275550000000     0.567000000000     0.0382446  
H316     H      0.555530000000     0.354880000000     0.557130000000     0.0413037  
H317     H      0.831480000000     0.292480000000     0.210500000000     0.0399971  
H318     H      0.854640000000     0.319650000000     0.377670000000     0.0293778  
H319     H      0.814550000000     0.275310000000     0.410270000000     0.0402588  
H320     H      0.787340000000     0.252090000000     0.243110000000     0.0291303  
H321     H      0.853290000000     0.975040000000     0.199680000000     0.207008   
H322     H      0.423720000000     0.380200000000     0.059570000000     0.197047   
H323     H      0.503820000000     0.976240000000     0.682830000000     0.206536   
H324     H      0.434510000000     0.370750000000     0.802850000000     0.205084   
H325     H      0.874520000000     0.409020000000     0.997020000000     0.128563   
H326     H      0.456120000000     0.916500000000     0.979470000000     0.189527   
H327     H      0.547470000000     0.433180000000     0.110830000000     0.131528   
H328     H      0.557770000000     0.930460000000     0.740160000000     0.189108   
H329     H      0.471720000000     0.938720000000     0.877600000000     0.134014   
H330     H      0.904650000000     0.417400000000     0.894120000000     0.187964   
H331     H      0.812510000000     0.420520000000     0.740700000000     0.133962   
H332     H      0.799880000000     0.933890000000     0.135030000000     0.188987   
H333     H      0.554000000000     0.924360000000     0.808530000000     0.205669   
H334     H      0.862090000000     0.425830000000     0.894600000000     0.21462    
H335     H      0.802990000000     0.430080000000     0.066160000000     0.203117   
H336     H      0.480240000000     0.952490000000     0.978670000000     0.209248   
H337     H      0.632180000000     0.253730000000     0.921320000000     0.20695    
H338     H      0.727640000000     0.184930000000     0.062460000000     0.198573   
H339     H      0.631070000000     0.103580000000     0.941960000000     0.206206   
H340     H      0.736250000000     0.171560000000     0.819340000000     0.206304   
H341     H      0.698960000000     0.234270000000     0.123750000000     0.129641   
H342     H      0.652970000000     0.145870000000     0.143420000000     0.202631   
H343     H      0.673720000000     0.060720000000     0.024590000000     0.132021   
H344     H      0.676680000000     0.049190000000     0.885640000000     0.18934    
H345     H      0.664210000000     0.125400000000     0.746270000000     0.140877   
H346     H      0.683510000000     0.199330000000     0.727600000000     0.192701   
H347     H      0.685840000000     0.294200000000     0.877140000000     0.133454   
H348     H      0.673490000000     0.307650000000     0.983380000000     0.188985   
H349     H      0.682350000000     0.052310000000     0.817090000000     0.205179   
H350     H      0.686350000000     0.242530000000     0.726070000000     0.213901   
H351     H      0.677570000000     0.305490000000     0.052300000000     0.203527   
H352     H      0.696210000000     0.142730000000     0.145230000000     0.197774   
H353     H      0.561110000000     0.003420000000     0.799720000000     0.0319706  
H354     H      0.482910000000     0.081670000000     0.795720000000     0.0402198  
H355     H      0.525100000000     0.123780000000     0.828260000000     0.0401175  
H356     H      0.602970000000     0.045180000000     0.827900000000     0.0316025  
H357     H      0.555300000000     0.011290000000     0.077730000000     0.0357577  
H358     H      0.476560000000     0.088760000000     0.080410000000     0.0380632  
H359     H      0.518430000000     0.130790000000     0.043230000000     0.0380383  
H360     H      0.596660000000     0.052820000000     0.046900000000     0.0350404  
H361     H      0.565740000000     0.343320000000     0.760690000000     0.035567   
H362     H      0.483610000000     0.270630000000     0.781760000000     0.0375358  
H363     H      0.525080000000     0.228440000000     0.817450000000     0.0396326  
H364     H      0.606860000000     0.301050000000     0.791020000000     0.0398424  
H365     H      0.878560000000     0.081520000000     0.804970000000     0.039815   
H366     H      0.805790000000     0.000030000000     0.832520000000     0.0392551  
H367     H      0.763720000000     0.041140000000     0.863440000000     0.0354193  
H368     H      0.836540000000     0.123000000000     0.841030000000     0.0376516  
H369     H      0.795910000000     0.353450000000     0.074480000000     0.0340573  
H370     H      0.874140000000     0.275120000000     0.078450000000     0.0382787  
H371     H      0.832560000000     0.233610000000     0.042730000000     0.0381663  
H372     H      0.754820000000     0.312450000000     0.042030000000     0.0341066  
H373     H      0.832030000000     0.128740000000     0.055760000000     0.0380756  
H374     H      0.752900000000     0.051550000000     0.062090000000     0.0396173  
H375     H      0.794020000000     0.010140000000     0.094360000000     0.0327267  
H376     H      0.873500000000     0.086970000000     0.092810000000     0.0389049  
H377     H      0.596940000000     0.313770000000     0.024940000000     0.032792   
H378     H      0.520430000000     0.234060000000     0.030060000000     0.0388906  
H379     H      0.478660000000     0.275550000000     0.067010000000     0.0382416  
H380     H      0.555530000000     0.354880000000     0.057130000000     0.0412974  
H381     H      0.831480000000     0.292480000000     0.710500000000     0.0399951  
H382     H      0.854640000000     0.319650000000     0.877670000000     0.0293855  
H383     H      0.814550000000     0.275310000000     0.910270000000     0.0402728  
H384     H      0.787340000000     0.252090000000     0.743110000000     0.0291311  
H385     H      0.853290000000     0.475040000000     0.699680000000     0.206997   
H386     H      0.423720000000     0.880200000000     0.559570000000     0.196937   
H387     H      0.503820000000     0.476240000000     0.182830000000     0.206526   
H388     H      0.434510000000     0.870750000000     0.302850000000     0.205076   
H389     H      0.874520000000     0.909020000000     0.497020000000     0.128509   
H390     H      0.456120000000     0.416500000000     0.479470000000     0.189517   
H391     H      0.547470000000     0.933180000000     0.610840000000     0.131445   
H392     H      0.557770000000     0.430470000000     0.240160000000     0.189078   
H393     H      0.471720000000     0.438720000000     0.377600000000     0.134028   
H394     H      0.904650000000     0.917390000000     0.394120000000     0.18791    
H395     H      0.812510000000     0.920520000000     0.240700000000     0.13396    
H396     H      0.799880000000     0.433900000000     0.635030000000     0.18897    
H397     H      0.554000000000     0.424360000000     0.308530000000     0.20565    
H398     H      0.862090000000     0.925830000000     0.394600000000     0.214594   
H399     H      0.802990000000     0.930080000000     0.566160000000     0.203133   
H400     H      0.480240000000     0.452490000000     0.478670000000     0.209237   
H401     H      0.632180000000     0.753730000000     0.421320000000     0.206937   
H402     H      0.727640000000     0.684920000000     0.562470000000     0.198474   
H403     H      0.631070000000     0.603580000000     0.441960000000     0.206193   
H404     H      0.736250000000     0.671560000000     0.319340000000     0.206304   
H405     H      0.698960000000     0.734270000000     0.623750000000     0.129657   
H406     H      0.652970000000     0.645870000000     0.643420000000     0.202634   
H407     H      0.673720000000     0.560720000000     0.524590000000     0.132038   
H408     H      0.676680000000     0.549190000000     0.385640000000     0.189329   
H409     H      0.664210000000     0.625400000000     0.246270000000     0.140879   
H410     H      0.683510000000     0.699330000000     0.227600000000     0.192644   
H411     H      0.685840000000     0.794200000000     0.377140000000     0.133438   
H412     H      0.673490000000     0.807640000000     0.483380000000     0.189039   
H413     H      0.682350000000     0.552310000000     0.317090000000     0.205177   
H414     H      0.686350000000     0.742540000000     0.226070000000     0.213711   
H415     H      0.677570000000     0.805490000000     0.552300000000     0.203565   
H416     H      0.696210000000     0.642730000000     0.645230000000     0.197775   
H417     H      0.561110000000     0.503420000000     0.299720000000     0.0319648  
H418     H      0.482910000000     0.581670000000     0.295720000000     0.0402137  
H419     H      0.525100000000     0.623780000000     0.328260000000     0.0401135  
H420     H      0.602970000000     0.545180000000     0.327900000000     0.0315992  
H421     H      0.555300000000     0.511290000000     0.577730000000     0.0357627  
H422     H      0.476560000000     0.588760000000     0.580410000000     0.0380688  
H423     H      0.518430000000     0.630790000000     0.543230000000     0.038049   
H424     H      0.596660000000     0.552820000000     0.546900000000     0.0350464  
H425     H      0.565740000000     0.843320000000     0.260690000000     0.0355703  
H426     H      0.483610000000     0.770630000000     0.281760000000     0.0375354  
H427     H      0.525080000000     0.728440000000     0.317440000000     0.0396214  
H428     H      0.606860000000     0.801050000000     0.291020000000     0.0398261  
H429     H      0.878560000000     0.581520000000     0.304970000000     0.0398109  
H430     H      0.805790000000     0.500030000000     0.332520000000     0.0392522  
H431     H      0.763720000000     0.541140000000     0.363440000000     0.0354215  
H432     H      0.836540000000     0.623000000000     0.341030000000     0.0376503  
H433     H      0.795910000000     0.853450000000     0.574480000000     0.0340582  
H434     H      0.874140000000     0.775120000000     0.578450000000     0.0382847  
H435     H      0.832560000000     0.733610000000     0.542730000000     0.0381803  
H436     H      0.754820000000     0.812450000000     0.542030000000     0.0341129  
H437     H      0.832030000000     0.628740000000     0.555760000000     0.0380881  
H438     H      0.752900000000     0.551550000000     0.562090000000     0.0396248  
H439     H      0.794020000000     0.510140000000     0.594360000000     0.0327267  
H440     H      0.873500000000     0.586970000000     0.592810000000     0.0389089  
H441     H      0.596940000000     0.813770000000     0.524940000000     0.0328014  
H442     H      0.520430000000     0.734060000000     0.530060000000     0.038903   
H443     H      0.478660000000     0.775550000000     0.567000000000     0.0382445  
H444     H      0.555530000000     0.854890000000     0.557130000000     0.0413013  
H445     H      0.831480000000     0.792480000000     0.210500000000     0.039997   
H446     H      0.854640000000     0.819650000000     0.377670000000     0.0293732  
H447     H      0.814550000000     0.775310000000     0.410270000000     0.0402508  
H448     H      0.787340000000     0.752100000000     0.243110000000     0.0291331  
H449     H      0.853290000000     0.475040000000     0.199680000000     0.207001   
H450     H      0.423720000000     0.880200000000     0.059570000000     0.19704    
H451     H      0.503820000000     0.476240000000     0.682830000000     0.206535   
H452     H      0.434510000000     0.870750000000     0.802850000000     0.205082   
H453     H      0.874520000000     0.909020000000     0.997020000000     0.128572   
H454     H      0.456120000000     0.416500000000     0.979470000000     0.189525   
H455     H      0.547470000000     0.933180000000     0.110830000000     0.131527   
H456     H      0.557770000000     0.430470000000     0.740160000000     0.189076   
H457     H      0.471720000000     0.438720000000     0.877600000000     0.134011   
H458     H      0.904650000000     0.917390000000     0.894120000000     0.187918   
H459     H      0.812510000000     0.920520000000     0.740700000000     0.13396    
H460     H      0.799880000000     0.433900000000     0.135030000000     0.188968   
H461     H      0.554000000000     0.424360000000     0.808530000000     0.20566    
H462     H      0.862090000000     0.925830000000     0.894600000000     0.214606   
H463     H      0.802990000000     0.930080000000     0.066160000000     0.203123   
H464     H      0.480240000000     0.452490000000     0.978670000000     0.209247   
H465     H      0.632180000000     0.753730000000     0.921320000000     0.206946   
H466     H      0.727640000000     0.684920000000     0.062460000000     0.198594   
H467     H      0.631070000000     0.603580000000     0.941960000000     0.206205   
H468     H      0.736250000000     0.671560000000     0.819340000000     0.206304   
H469     H      0.698960000000     0.734270000000     0.123750000000     0.129651   
H470     H      0.652970000000     0.645870000000     0.143420000000     0.202633   
H471     H      0.673720000000     0.560720000000     0.024590000000     0.132021   
H472     H      0.676680000000     0.549190000000     0.885640000000     0.189341   
H473     H      0.664210000000     0.625400000000     0.746270000000     0.140879   
H474     H      0.683510000000     0.699330000000     0.727600000000     0.192644   
H475     H      0.685840000000     0.794200000000     0.877140000000     0.133446   
H476     H      0.673490000000     0.807640000000     0.983380000000     0.189103   
H477     H      0.682350000000     0.552310000000     0.817090000000     0.20518    
H478     H      0.686350000000     0.742540000000     0.726070000000     0.213712   
H479     H      0.677570000000     0.805490000000     0.052300000000     0.203574   
H480     H      0.696210000000     0.642730000000     0.145230000000     0.197774   
H481     H      0.561110000000     0.503420000000     0.799720000000     0.0319678  
H482     H      0.482910000000     0.581670000000     0.795720000000     0.0402197  
H483     H      0.525100000000     0.623780000000     0.828260000000     0.0401165  
H484     H      0.602970000000     0.545180000000     0.827900000000     0.0316026  
H485     H      0.555300000000     0.511290000000     0.077730000000     0.0357576  
H486     H      0.476560000000     0.588760000000     0.080410000000     0.0380633  
H487     H      0.518430000000     0.630790000000     0.043230000000     0.0380383  
H488     H      0.596660000000     0.552820000000     0.046900000000     0.0350405  
H489     H      0.565740000000     0.843320000000     0.760690000000     0.0355722  
H490     H      0.483610000000     0.770630000000     0.781760000000     0.0375385  
H491     H      0.525080000000     0.728440000000     0.817450000000     0.0396262  
H492     H      0.606860000000     0.801050000000     0.791020000000     0.0398285  
H493     H      0.878560000000     0.581520000000     0.804970000000     0.0398146  
H494     H      0.805790000000     0.500030000000     0.832520000000     0.0392549  
H495     H      0.763720000000     0.541140000000     0.863440000000     0.035428   
H496     H      0.836540000000     0.623000000000     0.841030000000     0.0376545  
H497     H      0.795910000000     0.853450000000     0.074480000000     0.0340549  
H498     H      0.874140000000     0.775120000000     0.078450000000     0.0382795  
H499     H      0.832560000000     0.733610000000     0.042730000000     0.0381676  
H500     H      0.754820000000     0.812450000000     0.042030000000     0.0341053  
H501     H      0.832030000000     0.628740000000     0.055760000000     0.0380786  
H502     H      0.752900000000     0.551550000000     0.062090000000     0.0396198  
H503     H      0.794020000000     0.510140000000     0.094360000000     0.0327239  
H504     H      0.873500000000     0.586970000000     0.092810000000     0.0389048  
H505     H      0.596940000000     0.813770000000     0.024940000000     0.0327926  
H506     H      0.520430000000     0.734060000000     0.030060000000     0.0388909  
H507     H      0.478660000000     0.775550000000     0.067010000000     0.0382414  
H508     H      0.555530000000     0.854890000000     0.057130000000     0.0412949  
H509     H      0.831480000000     0.792480000000     0.710500000000     0.0399951  
H510     H      0.854640000000     0.819650000000     0.877670000000     0.0293809  
H511     H      0.814550000000     0.775310000000     0.910270000000     0.0402648  
H512     H      0.787340000000     0.752100000000     0.743110000000     0.0291339  
N1       N      0.018710000000     0.039330000000     0.295640000000    -0.173268   
N2       N      0.067280000000     0.087780000000     0.329970000000    -0.173642   
N3       N      0.012600000000     0.046760000000     0.581230000000    -0.170686   
N4       N      0.060800000000     0.095150000000     0.542870000000    -0.170647   
N5       N      0.021420000000     0.310410000000     0.269800000000    -0.171324   
N6       N      0.069160000000     0.261470000000     0.307430000000    -0.169869   
N7       N      0.345400000000     0.037590000000     0.315390000000    -0.17021    
N8       N      0.296700000000     0.085330000000     0.353610000000    -0.1717     
N9       N      0.338260000000     0.317440000000     0.578930000000    -0.175595   
N10      N      0.290500000000     0.269780000000     0.540160000000    -0.175711   
N11      N      0.289330000000     0.093330000000     0.555880000000    -0.171812   
N12      N      0.337090000000     0.045290000000     0.595250000000    -0.172325   
N13      N      0.061960000000     0.270610000000     0.525960000000    -0.172521   
N14      N      0.013920000000     0.318340000000     0.565210000000    -0.171488   
N15      N      0.346010000000     0.309060000000     0.291860000000    -0.171217   
N16      N      0.297970000000     0.260720000000     0.328920000000    -0.171199   
N17      N      0.018710000000     0.039330000000     0.795640000000    -0.173264   
N18      N      0.067280000000     0.087780000000     0.829970000000    -0.173641   
N19      N      0.012600000000     0.046760000000     0.081230000000    -0.170688   
N20      N      0.060800000000     0.095150000000     0.042870000000    -0.170639   
N21      N      0.021420000000     0.310410000000     0.769800000000    -0.171323   
N22      N      0.069160000000     0.261470000000     0.807430000000    -0.169869   
N23      N      0.345400000000     0.037590000000     0.815390000000    -0.170221   
N24      N      0.296700000000     0.085330000000     0.853610000000    -0.171698   
N25      N      0.338260000000     0.317440000000     0.078940000000    -0.175609   
N26      N      0.290500000000     0.269780000000     0.040160000000    -0.175708   
N27      N      0.289330000000     0.093330000000     0.055880000000    -0.171821   
N28      N      0.337090000000     0.045290000000     0.095250000000    -0.172326   
N29      N      0.061960000000     0.270610000000     0.025960000000    -0.172513   
N30      N      0.013920000000     0.318340000000     0.065210000000    -0.17149    
N31      N      0.346010000000     0.309060000000     0.791860000000    -0.171217   
N32      N      0.297970000000     0.260720000000     0.828920000000    -0.171198   
N33      N      0.018710000000     0.539330000000     0.295640000000    -0.173268   
N34      N      0.067280000000     0.587780000000     0.329970000000    -0.173642   
N35      N      0.012600000000     0.546760000000     0.581230000000    -0.170686   
N36      N      0.060800000000     0.595150000000     0.542870000000    -0.170647   
N37      N      0.021420000000     0.810410000000     0.269800000000    -0.17131    
N38      N      0.069160000000     0.761470000000     0.307430000000    -0.169931   
N39      N      0.345400000000     0.537590000000     0.315390000000    -0.17021    
N40      N      0.296700000000     0.585330000000     0.353610000000    -0.171681   
N41      N      0.338260000000     0.817440000000     0.578930000000    -0.17559    
N42      N      0.290500000000     0.769780000000     0.540160000000    -0.175712   
N43      N      0.289330000000     0.593330000000     0.555880000000    -0.171787   
N44      N      0.337090000000     0.545290000000     0.595250000000    -0.172322   
N45      N      0.061960000000     0.770610000000     0.525960000000    -0.172519   
N46      N      0.013920000000     0.818340000000     0.565210000000    -0.171493   
N47      N      0.346010000000     0.809060000000     0.291860000000    -0.171217   
N48      N      0.297970000000     0.760720000000     0.328920000000    -0.171236   
N49      N      0.018710000000     0.539330000000     0.795640000000    -0.173265   
N50      N      0.067280000000     0.587780000000     0.829970000000    -0.173641   
N51      N      0.012600000000     0.546760000000     0.081230000000    -0.170688   
N52      N      0.060800000000     0.595150000000     0.042870000000    -0.170639   
N53      N      0.021420000000     0.810410000000     0.769800000000    -0.171309   
N54      N      0.069160000000     0.761470000000     0.807430000000    -0.169931   
N55      N      0.345400000000     0.537590000000     0.815390000000    -0.170222   
N56      N      0.296700000000     0.585330000000     0.853610000000    -0.171679   
N57      N      0.338260000000     0.817440000000     0.078940000000    -0.175605   
N58      N      0.290500000000     0.769780000000     0.040160000000    -0.175708   
N59      N      0.289330000000     0.593330000000     0.055880000000    -0.171796   
N60      N      0.337090000000     0.545290000000     0.095250000000    -0.172323   
N61      N      0.061960000000     0.770610000000     0.025960000000    -0.172512   
N62      N      0.013920000000     0.818340000000     0.065210000000    -0.171495   
N63      N      0.346010000000     0.809060000000     0.791860000000    -0.171217   
N64      N      0.297970000000     0.760720000000     0.828920000000    -0.171235   
N65      N      0.518710000000     0.039330000000     0.295640000000    -0.173487   
N66      N      0.567280000000     0.087780000000     0.329970000000    -0.173677   
N67      N      0.512600000000     0.046760000000     0.581230000000    -0.170828   
N68      N      0.560800000000     0.095150000000     0.542870000000    -0.170685   
N69      N      0.521430000000     0.310410000000     0.269800000000    -0.171501   
N70      N      0.569160000000     0.261470000000     0.307430000000    -0.169902   
N71      N      0.845400000000     0.037590000000     0.315390000000    -0.17024    
N72      N      0.796690000000     0.085330000000     0.353610000000    -0.171746   
N73      N      0.838260000000     0.317440000000     0.578930000000    -0.175588   
N74      N      0.790500000000     0.269780000000     0.540160000000    -0.175725   
N75      N      0.789330000000     0.093330000000     0.555880000000    -0.17181    
N76      N      0.837080000000     0.045290000000     0.595250000000    -0.172286   
N77      N      0.561960000000     0.270610000000     0.525960000000    -0.172559   
N78      N      0.513930000000     0.318340000000     0.565210000000    -0.171569   
N79      N      0.846010000000     0.309060000000     0.291860000000    -0.171216   
N80      N      0.797970000000     0.260720000000     0.328920000000    -0.171201   
N81      N      0.518710000000     0.039330000000     0.795640000000    -0.173484   
N82      N      0.567280000000     0.087780000000     0.829970000000    -0.173676   
N83      N      0.512600000000     0.046760000000     0.081230000000    -0.17083    
N84      N      0.560800000000     0.095150000000     0.042870000000    -0.170678   
N85      N      0.521430000000     0.310410000000     0.769800000000    -0.171501   
N86      N      0.569160000000     0.261470000000     0.807430000000    -0.169902   
N87      N      0.845400000000     0.037590000000     0.815390000000    -0.170252   
N88      N      0.796690000000     0.085330000000     0.853610000000    -0.171744   
N89      N      0.838260000000     0.317440000000     0.078940000000    -0.175603   
N90      N      0.790500000000     0.269780000000     0.040160000000    -0.175722   
N91      N      0.789330000000     0.093330000000     0.055880000000    -0.171818   
N92      N      0.837080000000     0.045290000000     0.095250000000    -0.172287   
N93      N      0.561960000000     0.270610000000     0.025960000000    -0.172551   
N94      N      0.513930000000     0.318340000000     0.065210000000    -0.171571   
N95      N      0.846010000000     0.309060000000     0.791860000000    -0.171216   
N96      N      0.797970000000     0.260720000000     0.828920000000    -0.1712     
N97      N      0.518710000000     0.539330000000     0.295640000000    -0.173488   
N98      N      0.567280000000     0.587780000000     0.329970000000    -0.173677   
N99      N      0.512600000000     0.546760000000     0.581230000000    -0.170828   
N100     N      0.560800000000     0.595150000000     0.542870000000    -0.170685   
N101     N      0.521430000000     0.810410000000     0.269800000000    -0.171487   
N102     N      0.569160000000     0.761470000000     0.307430000000    -0.169964   
N103     N      0.845400000000     0.537590000000     0.315390000000    -0.170241   
N104     N      0.796690000000     0.585330000000     0.353610000000    -0.171727   
N105     N      0.838260000000     0.817440000000     0.578930000000    -0.175584   
N106     N      0.790500000000     0.769780000000     0.540160000000    -0.175725   
N107     N      0.789330000000     0.593330000000     0.555880000000    -0.171785   
N108     N      0.837080000000     0.545290000000     0.595250000000    -0.172283   
N109     N      0.561960000000     0.770610000000     0.525960000000    -0.172557   
N110     N      0.513930000000     0.818340000000     0.565210000000    -0.171574   
N111     N      0.846010000000     0.809060000000     0.291860000000    -0.171216   
N112     N      0.797970000000     0.760720000000     0.328920000000    -0.171239   
N113     N      0.518710000000     0.539330000000     0.795640000000    -0.173484   
N114     N      0.567280000000     0.587780000000     0.829970000000    -0.173676   
N115     N      0.512600000000     0.546760000000     0.081230000000    -0.17083    
N116     N      0.560800000000     0.595150000000     0.042870000000    -0.170677   
N117     N      0.521430000000     0.810410000000     0.769800000000    -0.171486   
N118     N      0.569160000000     0.761470000000     0.807430000000    -0.169964   
N119     N      0.845400000000     0.537590000000     0.815390000000    -0.170252   
N120     N      0.796690000000     0.585330000000     0.853610000000    -0.171725   
N121     N      0.838260000000     0.817440000000     0.078940000000    -0.175598   
N122     N      0.790500000000     0.769780000000     0.040160000000    -0.175722   
N123     N      0.789330000000     0.593330000000     0.055880000000    -0.171793   
N124     N      0.837080000000     0.545290000000     0.095250000000    -0.172284   
N125     N      0.561960000000     0.770610000000     0.025960000000    -0.17255    
N126     N      0.513930000000     0.818340000000     0.065210000000    -0.171576   
N127     N      0.846010000000     0.809060000000     0.791860000000    -0.171217   
N128     N      0.797970000000     0.760720000000     0.828920000000    -0.171238   
O1       O      0.364470000000     0.365000000000     0.296490000000    -0.352089   
O2       O      0.387030000000     0.328350000000     0.231350000000    -0.344797   
O3       O      0.352550000000     0.988840000000     0.599880000000    -0.359916   
O4       O      0.387030000000     0.029450000000     0.640660000000    -0.345209   
O5       O      0.352600000000     0.373540000000     0.594040000000    -0.367445   
O6       O      0.388980000000     0.330790000000     0.622820000000    -0.352886   
O7       O      0.361650000000     0.981490000000     0.301800000000    -0.356564   
O8       O      0.391090000000     0.024780000000     0.257800000000    -0.344272   
O9       O      0.320150000000     0.422530000000     0.279710000000    -0.327029   
O10      O      0.383390000000     0.922160000000     0.374440000000    -0.517256   
O11      O      0.313920000000     0.431740000000     0.602070000000    -0.50253    
O12      O      0.371720000000     0.933320000000     0.509080000000    -0.344902   
O13      O      0.374000000000     0.393760000000     0.189390000000    -0.466288   
O14      O      0.374020000000     0.961280000000     0.196010000000    -0.61221    
O15      O      0.003570000000     0.982990000000     0.283680000000    -0.364989   
O16      O      0.968850000000     0.025710000000     0.249430000000    -0.350267   
O17      O      0.998560000000     0.374470000000     0.580180000000    -0.353361   
O18      O      0.965760000000     0.331090000000     0.616750000000    -0.350565   
O19      O      0.996560000000     0.990290000000     0.585630000000    -0.361618   
O20      O      0.965190000000     0.030490000000     0.633400000000    -0.33991    
O21      O      0.007250000000     0.367490000000     0.263990000000    -0.348967   
O22      O      0.969470000000     0.326910000000     0.231550000000    -0.350458   
O23      O      0.043430000000     0.927040000000     0.272500000000    -0.501976   
O24      O      0.985440000000     0.919110000000     0.363080000000    -0.351715   
O25      O      0.035420000000     0.933720000000     0.574640000000    -0.319074   
O26      O      0.969300000000     0.933920000000     0.498920000000    -0.517102   
O27      O      0.983080000000     0.962330000000     0.683450000000    -0.613138   
O28      O      0.983580000000     0.394610000000     0.676680000000    -0.463264   
O29      O      0.432400000000     0.962500000000     0.280100000000    -0.475588   
O30      O      0.924990000000     0.394200000000     0.592660000000    -0.621906   
O31      O      0.932820000000     0.387160000000     0.272800000000    -0.623098   
O32      O      0.424610000000     0.969480000000     0.599270000000    -0.470245   
O33      O      0.242030000000     0.241920000000     0.324440000000    -0.352256   
O34      O      0.278930000000     0.219810000000     0.389690000000    -0.34476    
O35      O      0.118540000000     0.255360000000     0.521080000000    -0.360259   
O36      O      0.077770000000     0.220400000000     0.481700000000    -0.345748   
O37      O      0.234220000000     0.255550000000     0.525610000000    -0.366827   
O38      O      0.276870000000     0.218690000000     0.497960000000    -0.353079   
O39      O      0.125340000000     0.244840000000     0.320070000000    -0.355318   
O40      O      0.082060000000     0.215790000000     0.364890000000    -0.343666   
O41      O      0.184540000000     0.285840000000     0.338440000000    -0.326042   
O42      O      0.184490000000     0.221240000000     0.246750000000    -0.519049   
O43      O      0.175770000000     0.294090000000     0.516800000000    -0.502846   
O44      O      0.174660000000     0.237610000000     0.611810000000    -0.344223   
O45      O      0.213560000000     0.233090000000     0.431270000000    -0.465906   
O46      O      0.145930000000     0.233040000000     0.425270000000    -0.612257   
O47      O      0.123780000000     0.102820000000     0.341430000000    -0.367962   
O48      O      0.081130000000     0.138010000000     0.374710000000    -0.35071    
O49      O      0.233060000000     0.108770000000     0.541100000000    -0.354213   
O50      O      0.276520000000     0.141880000000     0.505470000000    -0.350537   
O51      O      0.117280000000     0.111500000000     0.538220000000    -0.360498   
O52      O      0.076760000000     0.142430000000     0.490360000000    -0.339875   
O53      O      0.239550000000     0.099450000000     0.359950000000    -0.350117   
O54      O      0.280330000000     0.137460000000     0.391030000000    -0.350934   
O55      O      0.179900000000     0.063190000000     0.352900000000    -0.502702   
O56      O      0.187570000000     0.120030000000     0.260810000000    -0.355456   
O57      O      0.173420000000     0.074910000000     0.558730000000    -0.315781   
O58      O      0.174770000000     0.142320000000     0.624600000000    -0.519888   
O59      O      0.144930000000     0.124330000000     0.440890000000    -0.611647   
O60      O      0.212620000000     0.123870000000     0.447090000000    -0.461851   
O61      O      0.144360000000     0.173910000000     0.342660000000    -0.475929   
O62      O      0.213480000000     0.183350000000     0.529550000000    -0.621317   
O63      O      0.219900000000     0.173530000000     0.349470000000    -0.622302   
O64      O      0.137950000000     0.183690000000     0.523410000000    -0.471576   
O65      O      0.364470000000     0.365000000000     0.796490000000    -0.352089   
O66      O      0.387030000000     0.328350000000     0.731350000000    -0.344801   
O67      O      0.352550000000     0.988840000000     0.099880000000    -0.359917   
O68      O      0.387030000000     0.029450000000     0.140660000000    -0.345202   
O69      O      0.352600000000     0.373540000000     0.094040000000    -0.36746    
O70      O      0.388980000000     0.330790000000     0.122820000000    -0.352895   
O71      O      0.361650000000     0.981490000000     0.801800000000    -0.35658    
O72      O      0.391090000000     0.024780000000     0.757810000000    -0.344296   
O73      O      0.320150000000     0.422530000000     0.779710000000    -0.327027   
O74      O      0.383390000000     0.922160000000     0.874440000000    -0.517259   
O75      O      0.313920000000     0.431740000000     0.102070000000    -0.502529   
O76      O      0.371720000000     0.933320000000     0.009080000000    -0.344974   
O77      O      0.374000000000     0.393760000000     0.689390000000    -0.466289   
O78      O      0.374020000000     0.961280000000     0.696010000000    -0.612212   
O79      O      0.003570000000     0.982990000000     0.783680000000    -0.364975   
O80      O      0.968850000000     0.025710000000     0.749430000000    -0.350259   
O81      O      0.998560000000     0.374470000000     0.080180000000    -0.353369   
O82      O      0.965760000000     0.331090000000     0.116750000000    -0.350569   
O83      O      0.996560000000     0.990290000000     0.085630000000    -0.361624   
O84      O      0.965190000000     0.030490000000     0.133400000000    -0.339909   
O85      O      0.007250000000     0.367490000000     0.763990000000    -0.348964   
O86      O      0.969470000000     0.326910000000     0.731550000000    -0.350462   
O87      O      0.043430000000     0.927040000000     0.772500000000    -0.501973   
O88      O      0.985440000000     0.919110000000     0.863070000000    -0.351679   
O89      O      0.035420000000     0.933720000000     0.074640000000    -0.319164   
O90      O      0.969300000000     0.933920000000     0.998920000000    -0.517068   
O91      O      0.983080000000     0.962330000000     0.183450000000    -0.613097   
O92      O      0.983580000000     0.394610000000     0.176680000000    -0.463225   
O93      O      0.432400000000     0.962500000000     0.780090000000    -0.475617   
O94      O      0.924990000000     0.394200000000     0.092650000000    -0.621976   
O95      O      0.932820000000     0.387160000000     0.772800000000    -0.623099   
O96      O      0.424610000000     0.969480000000     0.099280000000    -0.470291   
O97      O      0.242030000000     0.241920000000     0.824440000000    -0.352256   
O98      O      0.278930000000     0.219810000000     0.889690000000    -0.344759   
O99      O      0.118540000000     0.255360000000     0.021080000000    -0.360253   
O100     O      0.077770000000     0.220400000000     0.981700000000    -0.345682   
O101     O      0.234220000000     0.255550000000     0.025600000000    -0.366831   
O102     O      0.276870000000     0.218690000000     0.997960000000    -0.353014   
O103     O      0.125340000000     0.244840000000     0.820070000000    -0.355319   
O104     O      0.082060000000     0.215790000000     0.864890000000    -0.343667   
O105     O      0.184540000000     0.285840000000     0.838440000000    -0.32604    
O106     O      0.184490000000     0.221240000000     0.746750000000    -0.51905    
O107     O      0.175770000000     0.294090000000     0.016800000000    -0.502912   
O108     O      0.174660000000     0.237610000000     0.111810000000    -0.344219   
O109     O      0.213560000000     0.233090000000     0.931270000000    -0.465873   
O110     O      0.145930000000     0.233040000000     0.925270000000    -0.612238   
O111     O      0.123780000000     0.102820000000     0.841430000000    -0.367962   
O112     O      0.081130000000     0.138010000000     0.874710000000    -0.35071    
O113     O      0.233060000000     0.108770000000     0.041110000000    -0.354207   
O114     O      0.276520000000     0.141880000000     0.005470000000    -0.350537   
O115     O      0.117280000000     0.111500000000     0.038220000000    -0.360491   
O116     O      0.076760000000     0.142430000000     0.990360000000    -0.339809   
O117     O      0.239550000000     0.099450000000     0.859950000000    -0.350116   
O118     O      0.280330000000     0.137460000000     0.891030000000    -0.350928   
O119     O      0.179900000000     0.063190000000     0.852900000000    -0.502703   
O120     O      0.187570000000     0.120030000000     0.760810000000    -0.355457   
O121     O      0.173420000000     0.074910000000     0.058730000000    -0.315778   
O122     O      0.174770000000     0.142320000000     0.124600000000    -0.51988    
O123     O      0.144930000000     0.124330000000     0.940890000000    -0.611627   
O124     O      0.212620000000     0.123870000000     0.947090000000    -0.461823   
O125     O      0.144360000000     0.173910000000     0.842660000000    -0.475932   
O126     O      0.213480000000     0.183350000000     0.029550000000    -0.621453   
O127     O      0.219900000000     0.173530000000     0.849470000000    -0.622307   
O128     O      0.137950000000     0.183690000000     0.023410000000    -0.471593   
O129     O      0.364470000000     0.865000000000     0.296490000000    -0.352094   
O130     O      0.387030000000     0.828350000000     0.231350000000    -0.344798   
O131     O      0.352550000000     0.488840000000     0.599880000000    -0.359853   
O132     O      0.387030000000     0.529450000000     0.640660000000    -0.345199   
O133     O      0.352600000000     0.873540000000     0.594040000000    -0.367382   
O134     O      0.388980000000     0.830790000000     0.622820000000    -0.352877   
O135     O      0.361650000000     0.481490000000     0.301800000000    -0.356567   
O136     O      0.391090000000     0.524780000000     0.257800000000    -0.344272   
O137     O      0.320150000000     0.922530000000     0.279710000000    -0.32703    
O138     O      0.383390000000     0.422160000000     0.374440000000    -0.517309   
O139     O      0.313920000000     0.931740000000     0.602070000000    -0.502554   
O140     O      0.371720000000     0.433320000000     0.509080000000    -0.344897   
O141     O      0.374000000000     0.893760000000     0.189390000000    -0.466252   
O142     O      0.374020000000     0.461280000000     0.196010000000    -0.612175   
O143     O      0.003570000000     0.482990000000     0.283680000000    -0.364994   
O144     O      0.968850000000     0.525710000000     0.249430000000    -0.350268   
O145     O      0.998560000000     0.874470000000     0.580180000000    -0.353364   
O146     O      0.965760000000     0.831090000000     0.616750000000    -0.350566   
O147     O      0.996560000000     0.490290000000     0.585630000000    -0.36162    
O148     O      0.965190000000     0.530490000000     0.633400000000    -0.339911   
O149     O      0.007250000000     0.867490000000     0.263990000000    -0.348969   
O150     O      0.969470000000     0.826910000000     0.231550000000    -0.350459   
O151     O      0.043430000000     0.427040000000     0.272500000000    -0.501938   
O152     O      0.985440000000     0.419110000000     0.363080000000    -0.351714   
O153     O      0.035420000000     0.433720000000     0.574640000000    -0.319072   
O154     O      0.969300000000     0.433920000000     0.498920000000    -0.517101   
O155     O      0.983080000000     0.462330000000     0.683450000000    -0.613138   
O156     O      0.983580000000     0.894610000000     0.676680000000    -0.463267   
O157     O      0.432400000000     0.462500000000     0.280100000000    -0.475591   
O158     O      0.924990000000     0.894200000000     0.592660000000    -0.621862   
O159     O      0.932820000000     0.887160000000     0.272800000000    -0.623099   
O160     O      0.424610000000     0.469480000000     0.599270000000    -0.470204   
O161     O      0.242030000000     0.741920000000     0.324440000000    -0.352255   
O162     O      0.278930000000     0.719810000000     0.389690000000    -0.344698   
O163     O      0.118540000000     0.755360000000     0.521080000000    -0.36026    
O164     O      0.077770000000     0.720400000000     0.481700000000    -0.345747   
O165     O      0.234220000000     0.755550000000     0.525610000000    -0.366823   
O166     O      0.276870000000     0.718690000000     0.497960000000    -0.353074   
O167     O      0.125340000000     0.744840000000     0.320070000000    -0.355355   
O168     O      0.082060000000     0.715800000000     0.364890000000    -0.343653   
O169     O      0.184540000000     0.785840000000     0.338440000000    -0.326042   
O170     O      0.184490000000     0.721240000000     0.246750000000    -0.518816   
O171     O      0.175770000000     0.794090000000     0.516800000000    -0.502994   
O172     O      0.174660000000     0.737610000000     0.611810000000    -0.344217   
O173     O      0.213560000000     0.733090000000     0.431270000000    -0.46591    
O174     O      0.145930000000     0.733040000000     0.425270000000    -0.612255   
O175     O      0.123780000000     0.602820000000     0.341430000000    -0.367959   
O176     O      0.081130000000     0.638010000000     0.374710000000    -0.350714   
O177     O      0.233060000000     0.608770000000     0.541100000000    -0.354177   
O178     O      0.276520000000     0.641890000000     0.505470000000    -0.35047    
O179     O      0.117280000000     0.611500000000     0.538220000000    -0.360497   
O180     O      0.076760000000     0.642430000000     0.490360000000    -0.339874   
O181     O      0.239550000000     0.599440000000     0.359950000000    -0.350048   
O182     O      0.280330000000     0.637460000000     0.391030000000    -0.350924   
O183     O      0.179900000000     0.563190000000     0.352900000000    -0.502697   
O184     O      0.187570000000     0.620030000000     0.260810000000    -0.355457   
O185     O      0.173420000000     0.574910000000     0.558730000000    -0.315781   
O186     O      0.174770000000     0.642320000000     0.624600000000    -0.519889   
O187     O      0.144930000000     0.624330000000     0.440890000000    -0.611641   
O188     O      0.212620000000     0.623870000000     0.447090000000    -0.461858   
O189     O      0.144360000000     0.673910000000     0.342660000000    -0.475926   
O190     O      0.213480000000     0.683350000000     0.529550000000    -0.621331   
O191     O      0.219900000000     0.673530000000     0.349470000000    -0.622305   
O192     O      0.137950000000     0.683690000000     0.523410000000    -0.471573   
O193     O      0.364470000000     0.865000000000     0.796490000000    -0.352094   
O194     O      0.387030000000     0.828350000000     0.731350000000    -0.344802   
O195     O      0.352550000000     0.488840000000     0.099880000000    -0.359854   
O196     O      0.387030000000     0.529450000000     0.140660000000    -0.345192   
O197     O      0.352600000000     0.873540000000     0.094040000000    -0.367397   
O198     O      0.388980000000     0.830790000000     0.122820000000    -0.352886   
O199     O      0.361650000000     0.481490000000     0.801800000000    -0.356583   
O200     O      0.391090000000     0.524780000000     0.757810000000    -0.344297   
O201     O      0.320150000000     0.922530000000     0.779710000000    -0.327028   
O202     O      0.383390000000     0.422160000000     0.874440000000    -0.517312   
O203     O      0.313920000000     0.931740000000     0.102070000000    -0.502553   
O204     O      0.371720000000     0.433320000000     0.009080000000    -0.344968   
O205     O      0.374000000000     0.893760000000     0.689390000000    -0.466253   
O206     O      0.374020000000     0.461280000000     0.696010000000    -0.612177   
O207     O      0.003570000000     0.482990000000     0.783680000000    -0.364979   
O208     O      0.968850000000     0.525710000000     0.749430000000    -0.35026    
O209     O      0.998560000000     0.874470000000     0.080180000000    -0.353372   
O210     O      0.965760000000     0.831090000000     0.116750000000    -0.35057    
O211     O      0.996560000000     0.490290000000     0.085630000000    -0.361626   
O212     O      0.965190000000     0.530490000000     0.133400000000    -0.33991    
O213     O      0.007250000000     0.867490000000     0.763990000000    -0.348966   
O214     O      0.969470000000     0.826910000000     0.731550000000    -0.350462   
O215     O      0.043430000000     0.427040000000     0.772500000000    -0.501935   
O216     O      0.985440000000     0.419110000000     0.863070000000    -0.351678   
O217     O      0.035420000000     0.433720000000     0.074640000000    -0.319163   
O218     O      0.969300000000     0.433920000000     0.998920000000    -0.517068   
O219     O      0.983080000000     0.462330000000     0.183450000000    -0.613097   
O220     O      0.983580000000     0.894610000000     0.176680000000    -0.463227   
O221     O      0.432400000000     0.462500000000     0.780090000000    -0.47562    
O222     O      0.924990000000     0.894200000000     0.092650000000    -0.621932   
O223     O      0.932820000000     0.887160000000     0.772800000000    -0.6231     
O224     O      0.424610000000     0.469480000000     0.099280000000    -0.470251   
O225     O      0.242030000000     0.741920000000     0.824440000000    -0.352255   
O226     O      0.278930000000     0.719810000000     0.889690000000    -0.344696   
O227     O      0.118540000000     0.755360000000     0.021080000000    -0.360254   
O228     O      0.077770000000     0.720400000000     0.981700000000    -0.345681   
O229     O      0.234220000000     0.755550000000     0.025600000000    -0.366828   
O230     O      0.276870000000     0.718690000000     0.997960000000    -0.353009   
O231     O      0.125340000000     0.744840000000     0.820070000000    -0.355356   
O232     O      0.082060000000     0.715800000000     0.864890000000    -0.343654   
O233     O      0.184540000000     0.785840000000     0.838440000000    -0.32604    
O234     O      0.184490000000     0.721240000000     0.746750000000    -0.518817   
O235     O      0.175770000000     0.794090000000     0.016800000000    -0.50306    
O236     O      0.174660000000     0.737610000000     0.111810000000    -0.344212   
O237     O      0.213560000000     0.733090000000     0.931270000000    -0.465878   
O238     O      0.145930000000     0.733040000000     0.925270000000    -0.612235   
O239     O      0.123780000000     0.602820000000     0.841430000000    -0.367959   
O240     O      0.081130000000     0.638010000000     0.874710000000    -0.350715   
O241     O      0.233060000000     0.608770000000     0.041110000000    -0.354171   
O242     O      0.276520000000     0.641890000000     0.005470000000    -0.35047    
O243     O      0.117280000000     0.611500000000     0.038220000000    -0.36049    
O244     O      0.076760000000     0.642430000000     0.990360000000    -0.339808   
O245     O      0.239550000000     0.599440000000     0.859950000000    -0.350047   
O246     O      0.280330000000     0.637460000000     0.891030000000    -0.350919   
O247     O      0.179900000000     0.563190000000     0.852900000000    -0.502698   
O248     O      0.187570000000     0.620030000000     0.760810000000    -0.355458   
O249     O      0.173420000000     0.574910000000     0.058730000000    -0.315779   
O250     O      0.174770000000     0.642320000000     0.124600000000    -0.519881   
O251     O      0.144930000000     0.624330000000     0.940890000000    -0.611621   
O252     O      0.212620000000     0.623870000000     0.947090000000    -0.461831   
O253     O      0.144360000000     0.673910000000     0.842660000000    -0.475929   
O254     O      0.213480000000     0.683350000000     0.029550000000    -0.621467   
O255     O      0.219900000000     0.673530000000     0.849470000000    -0.62231    
O256     O      0.137950000000     0.683690000000     0.023410000000    -0.47159    
O257     O      0.864470000000     0.365000000000     0.296490000000    -0.352073   
O258     O      0.887030000000     0.328350000000     0.231350000000    -0.34476    
O259     O      0.852550000000     0.988840000000     0.599880000000    -0.3599     
O260     O      0.887030000000     0.029450000000     0.640660000000    -0.345203   
O261     O      0.852600000000     0.373540000000     0.594040000000    -0.367436   
O262     O      0.888980000000     0.330790000000     0.622820000000    -0.352857   
O263     O      0.861650000000     0.981490000000     0.301800000000    -0.356574   
O264     O      0.891090000000     0.024780000000     0.257800000000    -0.34429    
O265     O      0.820150000000     0.422530000000     0.279710000000    -0.327032   
O266     O      0.883390000000     0.922160000000     0.374440000000    -0.51726    
O267     O      0.813920000000     0.431740000000     0.602070000000    -0.502531   
O268     O      0.871720000000     0.933320000000     0.509080000000    -0.344907   
O269     O      0.874000000000     0.393760000000     0.189390000000    -0.466221   
O270     O      0.874020000000     0.961280000000     0.196010000000    -0.612205   
O271     O      0.503570000000     0.982990000000     0.283680000000    -0.365637   
O272     O      0.468850000000     0.025710000000     0.249430000000    -0.350371   
O273     O      0.498560000000     0.374470000000     0.580180000000    -0.353204   
O274     O      0.465750000000     0.331090000000     0.616750000000    -0.350446   
O275     O      0.496560000000     0.990290000000     0.585630000000    -0.361504   
O276     O      0.465190000000     0.030490000000     0.633400000000    -0.339895   
O277     O      0.507250000000     0.367490000000     0.263990000000    -0.349585   
O278     O      0.469470000000     0.326910000000     0.231550000000    -0.350515   
O279     O      0.543430000000     0.927040000000     0.272500000000    -0.502134   
O280     O      0.485440000000     0.919110000000     0.363080000000    -0.351654   
O281     O      0.535420000000     0.933720000000     0.574640000000    -0.319324   
O282     O      0.469300000000     0.933920000000     0.498920000000    -0.516976   
O283     O      0.483080000000     0.962330000000     0.683450000000    -0.612801   
O284     O      0.483580000000     0.394610000000     0.676680000000    -0.463155   
O285     O      0.932400000000     0.962500000000     0.280100000000    -0.475568   
O286     O      0.424990000000     0.394200000000     0.592660000000    -0.621946   
O287     O      0.432830000000     0.387160000000     0.272800000000    -0.623153   
O288     O      0.924610000000     0.969480000000     0.599270000000    -0.47022    
O289     O      0.742030000000     0.241920000000     0.324440000000    -0.352254   
O290     O      0.778930000000     0.219810000000     0.389690000000    -0.344768   
O291     O      0.618540000000     0.255360000000     0.521080000000    -0.360258   
O292     O      0.577770000000     0.220400000000     0.481700000000    -0.345772   
O293     O      0.734220000000     0.255550000000     0.525610000000    -0.366819   
O294     O      0.776870000000     0.218690000000     0.497960000000    -0.353078   
O295     O      0.625340000000     0.244840000000     0.320070000000    -0.35532    
O296     O      0.582060000000     0.215790000000     0.364890000000    -0.343689   
O297     O      0.684540000000     0.285840000000     0.338440000000    -0.32604    
O298     O      0.684490000000     0.221240000000     0.246750000000    -0.51905    
O299     O      0.675770000000     0.294090000000     0.516800000000    -0.502839   
O300     O      0.674650000000     0.237610000000     0.611810000000    -0.343954   
O301     O      0.713560000000     0.233090000000     0.431270000000    -0.465901   
O302     O      0.645930000000     0.233040000000     0.425270000000    -0.612249   
O303     O      0.623780000000     0.102820000000     0.341430000000    -0.367964   
O304     O      0.581130000000     0.138010000000     0.374710000000    -0.350733   
O305     O      0.733060000000     0.108770000000     0.541100000000    -0.354203   
O306     O      0.776520000000     0.141880000000     0.505470000000    -0.350537   
O307     O      0.617280000000     0.111500000000     0.538220000000    -0.360499   
O308     O      0.576760000000     0.142430000000     0.490360000000    -0.3399     
O309     O      0.739550000000     0.099450000000     0.359950000000    -0.350131   
O310     O      0.780330000000     0.137460000000     0.391030000000    -0.350962   
O311     O      0.679900000000     0.063190000000     0.352900000000    -0.5027     
O312     O      0.687570000000     0.120030000000     0.260810000000    -0.355453   
O313     O      0.673420000000     0.074910000000     0.558730000000    -0.315776   
O314     O      0.674770000000     0.142320000000     0.624600000000    -0.519889   
O315     O      0.644930000000     0.124330000000     0.440890000000    -0.61164    
O316     O      0.712620000000     0.123870000000     0.447090000000    -0.461847   
O317     O      0.644360000000     0.173910000000     0.342660000000    -0.47593    
O318     O      0.713490000000     0.183350000000     0.529550000000    -0.62138    
O319     O      0.719900000000     0.173530000000     0.349470000000    -0.622305   
O320     O      0.637950000000     0.183690000000     0.523410000000    -0.471582   
O321     O      0.864470000000     0.365000000000     0.796490000000    -0.352073   
O322     O      0.887030000000     0.328350000000     0.731350000000    -0.344763   
O323     O      0.852550000000     0.988840000000     0.099880000000    -0.359901   
O324     O      0.887030000000     0.029450000000     0.140660000000    -0.345197   
O325     O      0.852600000000     0.373540000000     0.094040000000    -0.367452   
O326     O      0.888980000000     0.330790000000     0.122820000000    -0.352866   
O327     O      0.861650000000     0.981490000000     0.801800000000    -0.35659    
O328     O      0.891090000000     0.024780000000     0.757810000000    -0.344314   
O329     O      0.820150000000     0.422530000000     0.779710000000    -0.32703    
O330     O      0.883390000000     0.922160000000     0.874440000000    -0.517262   
O331     O      0.813920000000     0.431740000000     0.102070000000    -0.50253    
O332     O      0.871720000000     0.933320000000     0.009080000000    -0.344978   
O333     O      0.874000000000     0.393760000000     0.689390000000    -0.466222   
O334     O      0.874020000000     0.961280000000     0.696010000000    -0.612207   
O335     O      0.503570000000     0.982990000000     0.783680000000    -0.365623   
O336     O      0.468850000000     0.025710000000     0.749430000000    -0.350363   
O337     O      0.498560000000     0.374470000000     0.080180000000    -0.353212   
O338     O      0.465750000000     0.331090000000     0.116750000000    -0.35045    
O339     O      0.496560000000     0.990290000000     0.085630000000    -0.361511   
O340     O      0.465190000000     0.030490000000     0.133400000000    -0.339895   
O341     O      0.507250000000     0.367490000000     0.763990000000    -0.349582   
O342     O      0.469470000000     0.326910000000     0.731550000000    -0.350518   
O343     O      0.543430000000     0.927040000000     0.772500000000    -0.502131   
O344     O      0.485440000000     0.919110000000     0.863070000000    -0.351618   
O345     O      0.535420000000     0.933720000000     0.074640000000    -0.319415   
O346     O      0.469300000000     0.933920000000     0.998920000000    -0.516943   
O347     O      0.483080000000     0.962330000000     0.183450000000    -0.61276    
O348     O      0.483580000000     0.394610000000     0.176680000000    -0.463116   
O349     O      0.932400000000     0.962500000000     0.780090000000    -0.475597   
O350     O      0.424990000000     0.394200000000     0.092650000000    -0.622016   
O351     O      0.432830000000     0.387160000000     0.772800000000    -0.623153   
O352     O      0.924610000000     0.969480000000     0.099280000000    -0.470266   
O353     O      0.742030000000     0.241920000000     0.824440000000    -0.352254   
O354     O      0.778930000000     0.219810000000     0.889690000000    -0.344767   
O355     O      0.618540000000     0.255360000000     0.021080000000    -0.360252   
O356     O      0.577770000000     0.220400000000     0.981700000000    -0.345707   
O357     O      0.734220000000     0.255550000000     0.025600000000    -0.366824   
O358     O      0.776870000000     0.218690000000     0.997960000000    -0.353013   
O359     O      0.625340000000     0.244840000000     0.820070000000    -0.355321   
O360     O      0.582060000000     0.215790000000     0.864890000000    -0.34369    
O361     O      0.684540000000     0.285840000000     0.838440000000    -0.326038   
O362     O      0.684490000000     0.221240000000     0.746750000000    -0.51905    
O363     O      0.675770000000     0.294090000000     0.016800000000    -0.502905   
O364     O      0.674650000000     0.237610000000     0.111810000000    -0.34395    
O365     O      0.713560000000     0.233090000000     0.931270000000    -0.465868   
O366     O      0.645930000000     0.233040000000     0.925270000000    -0.61223    
O367     O      0.623780000000     0.102820000000     0.841430000000    -0.367964   
O368     O      0.581130000000     0.138010000000     0.874710000000    -0.350733   
O369     O      0.733060000000     0.108770000000     0.041110000000    -0.354197   
O370     O      0.776520000000     0.141880000000     0.005470000000    -0.350537   
O371     O      0.617280000000     0.111500000000     0.038220000000    -0.360492   
O372     O      0.576760000000     0.142430000000     0.990360000000    -0.339835   
O373     O      0.739550000000     0.099450000000     0.859950000000    -0.35013    
O374     O      0.780330000000     0.137460000000     0.891030000000    -0.350957   
O375     O      0.679900000000     0.063190000000     0.852900000000    -0.502701   
O376     O      0.687570000000     0.120030000000     0.760810000000    -0.355454   
O377     O      0.673420000000     0.074910000000     0.058730000000    -0.315774   
O378     O      0.674770000000     0.142320000000     0.124600000000    -0.519881   
O379     O      0.644930000000     0.124330000000     0.940890000000    -0.61162    
O380     O      0.712620000000     0.123870000000     0.947090000000    -0.46182    
O381     O      0.644360000000     0.173910000000     0.842660000000    -0.475933   
O382     O      0.713490000000     0.183350000000     0.029550000000    -0.621516   
O383     O      0.719900000000     0.173530000000     0.849470000000    -0.62231    
O384     O      0.637950000000     0.183690000000     0.023410000000    -0.4716     
O385     O      0.864470000000     0.865000000000     0.296490000000    -0.352077   
O386     O      0.887030000000     0.828350000000     0.231350000000    -0.34476    
O387     O      0.852550000000     0.488840000000     0.599880000000    -0.359837   
O388     O      0.887030000000     0.529450000000     0.640660000000    -0.345194   
O389     O      0.852600000000     0.873540000000     0.594040000000    -0.367374   
O390     O      0.888980000000     0.830790000000     0.622820000000    -0.352848   
O391     O      0.861650000000     0.481490000000     0.301800000000    -0.356577   
O392     O      0.891090000000     0.524780000000     0.257800000000    -0.344291   
O393     O      0.820150000000     0.922530000000     0.279710000000    -0.327033   
O394     O      0.883390000000     0.422160000000     0.374440000000    -0.517312   
O395     O      0.813920000000     0.931740000000     0.602070000000    -0.502556   
O396     O      0.871720000000     0.433320000000     0.509080000000    -0.344902   
O397     O      0.874000000000     0.893760000000     0.189390000000    -0.466185   
O398     O      0.874020000000     0.461280000000     0.196010000000    -0.612169   
O399     O      0.503570000000     0.482990000000     0.283680000000    -0.365642   
O400     O      0.468850000000     0.525710000000     0.249430000000    -0.350372   
O401     O      0.498560000000     0.874470000000     0.580180000000    -0.353207   
O402     O      0.465750000000     0.831090000000     0.616750000000    -0.350447   
O403     O      0.496560000000     0.490290000000     0.585630000000    -0.361506   
O404     O      0.465190000000     0.530490000000     0.633400000000    -0.339896   
O405     O      0.507250000000     0.867490000000     0.263990000000    -0.349587   
O406     O      0.469470000000     0.826910000000     0.231550000000    -0.350515   
O407     O      0.543430000000     0.427040000000     0.272500000000    -0.502096   
O408     O      0.485440000000     0.419110000000     0.363080000000    -0.351653   
O409     O      0.535420000000     0.433720000000     0.574640000000    -0.319323   
O410     O      0.469300000000     0.433920000000     0.498920000000    -0.516976   
O411     O      0.483080000000     0.462330000000     0.683450000000    -0.612802   
O412     O      0.483580000000     0.894610000000     0.676680000000    -0.463158   
O413     O      0.932400000000     0.462500000000     0.280100000000    -0.475572   
O414     O      0.424990000000     0.894200000000     0.592660000000    -0.621903   
O415     O      0.432830000000     0.887160000000     0.272800000000    -0.623154   
O416     O      0.924610000000     0.469480000000     0.599270000000    -0.470179   
O417     O      0.742030000000     0.741920000000     0.324440000000    -0.352252   
O418     O      0.778930000000     0.719810000000     0.389690000000    -0.344706   
O419     O      0.618540000000     0.755360000000     0.521080000000    -0.360258   
O420     O      0.577770000000     0.720400000000     0.481700000000    -0.345771   
O421     O      0.734220000000     0.755550000000     0.525610000000    -0.366815   
O422     O      0.776870000000     0.718690000000     0.497960000000    -0.353073   
O423     O      0.625340000000     0.744840000000     0.320070000000    -0.355357   
O424     O      0.582060000000     0.715800000000     0.364890000000    -0.343676   
O425     O      0.684540000000     0.785840000000     0.338440000000    -0.326041   
O426     O      0.684490000000     0.721240000000     0.246750000000    -0.518817   
O427     O      0.675770000000     0.794090000000     0.516800000000    -0.502988   
O428     O      0.674650000000     0.737610000000     0.611810000000    -0.343947   
O429     O      0.713560000000     0.733090000000     0.431270000000    -0.465905   
O430     O      0.645930000000     0.733040000000     0.425270000000    -0.612246   
O431     O      0.623780000000     0.602820000000     0.341430000000    -0.367961   
O432     O      0.581130000000     0.638010000000     0.374710000000    -0.350738   
O433     O      0.733060000000     0.608770000000     0.541100000000    -0.354166   
O434     O      0.776520000000     0.641890000000     0.505470000000    -0.35047    
O435     O      0.617280000000     0.611500000000     0.538220000000    -0.360498   
O436     O      0.576760000000     0.642430000000     0.490360000000    -0.339899   
O437     O      0.739550000000     0.599440000000     0.359950000000    -0.350062   
O438     O      0.780330000000     0.637460000000     0.391030000000    -0.350953   
O439     O      0.679900000000     0.563190000000     0.352900000000    -0.502695   
O440     O      0.687570000000     0.620030000000     0.260810000000    -0.355453   
O441     O      0.673420000000     0.574910000000     0.558730000000    -0.315777   
O442     O      0.674770000000     0.642320000000     0.624600000000    -0.51989    
O443     O      0.644930000000     0.624330000000     0.440890000000    -0.611634   
O444     O      0.712620000000     0.623870000000     0.447090000000    -0.461854   
O445     O      0.644360000000     0.673910000000     0.342660000000    -0.475927   
O446     O      0.713490000000     0.683350000000     0.529550000000    -0.621393   
O447     O      0.719900000000     0.673530000000     0.349470000000    -0.622309   
O448     O      0.637950000000     0.683690000000     0.523410000000    -0.471579   
O449     O      0.864470000000     0.865000000000     0.796490000000    -0.352077   
O450     O      0.887030000000     0.828350000000     0.731350000000    -0.344764   
O451     O      0.852550000000     0.488840000000     0.099880000000    -0.359838   
O452     O      0.887030000000     0.529450000000     0.140660000000    -0.345187   
O453     O      0.852600000000     0.873540000000     0.094040000000    -0.367389   
O454     O      0.888980000000     0.830790000000     0.122820000000    -0.352857   
O455     O      0.861650000000     0.481490000000     0.801800000000    -0.356593   
O456     O      0.891090000000     0.524780000000     0.757810000000    -0.344315   
O457     O      0.820150000000     0.922530000000     0.779710000000    -0.327031   
O458     O      0.883390000000     0.422160000000     0.874440000000    -0.517315   
O459     O      0.813920000000     0.931740000000     0.102070000000    -0.502555   
O460     O      0.871720000000     0.433320000000     0.009080000000    -0.344973   
O461     O      0.874000000000     0.893760000000     0.689390000000    -0.466186   
O462     O      0.874020000000     0.461280000000     0.696010000000    -0.612172   
O463     O      0.503570000000     0.482990000000     0.783680000000    -0.365627   
O464     O      0.468850000000     0.525710000000     0.749430000000    -0.350364   
O465     O      0.498560000000     0.874470000000     0.080180000000    -0.353216   
O466     O      0.465750000000     0.831090000000     0.116750000000    -0.350452   
O467     O      0.496560000000     0.490290000000     0.085630000000    -0.361513   
O468     O      0.465190000000     0.530490000000     0.133400000000    -0.339896   
O469     O      0.507250000000     0.867490000000     0.763990000000    -0.349584   
O470     O      0.469470000000     0.826910000000     0.731550000000    -0.350518   
O471     O      0.543430000000     0.427040000000     0.772500000000    -0.502094   
O472     O      0.485440000000     0.419110000000     0.863070000000    -0.351617   
O473     O      0.535420000000     0.433720000000     0.074640000000    -0.319414   
O474     O      0.469300000000     0.433920000000     0.998920000000    -0.516942   
O475     O      0.483080000000     0.462330000000     0.183450000000    -0.61276    
O476     O      0.483580000000     0.894610000000     0.176680000000    -0.463118   
O477     O      0.932400000000     0.462500000000     0.780090000000    -0.475601   
O478     O      0.424990000000     0.894200000000     0.092650000000    -0.621973   
O479     O      0.432830000000     0.887160000000     0.772800000000    -0.623154   
O480     O      0.924610000000     0.469480000000     0.099280000000    -0.470225   
O481     O      0.742030000000     0.741920000000     0.824440000000    -0.352252   
O482     O      0.778930000000     0.719810000000     0.889690000000    -0.344705   
O483     O      0.618540000000     0.755360000000     0.021080000000    -0.360252   
O484     O      0.577770000000     0.720400000000     0.981700000000    -0.345705   
O485     O      0.734220000000     0.755550000000     0.025600000000    -0.36682    
O486     O      0.776870000000     0.718690000000     0.997960000000    -0.353008   
O487     O      0.625340000000     0.744840000000     0.820070000000    -0.355358   
O488     O      0.582060000000     0.715800000000     0.864890000000    -0.343677   
O489     O      0.684540000000     0.785840000000     0.838440000000    -0.326039   
O490     O      0.684490000000     0.721240000000     0.746750000000    -0.518817   
O491     O      0.675770000000     0.794090000000     0.016800000000    -0.503054   
O492     O      0.674650000000     0.737610000000     0.111810000000    -0.343943   
O493     O      0.713560000000     0.733090000000     0.931270000000    -0.465872   
O494     O      0.645930000000     0.733040000000     0.925270000000    -0.612227   
O495     O      0.623780000000     0.602820000000     0.841430000000    -0.367961   
O496     O      0.581130000000     0.638010000000     0.874710000000    -0.350738   
O497     O      0.733060000000     0.608770000000     0.041110000000    -0.35416    
O498     O      0.776520000000     0.641890000000     0.005470000000    -0.35047    
O499     O      0.617280000000     0.611500000000     0.038220000000    -0.360491   
O500     O      0.576760000000     0.642430000000     0.990360000000    -0.339834   
O501     O      0.739550000000     0.599440000000     0.859950000000    -0.350061   
O502     O      0.780330000000     0.637460000000     0.891030000000    -0.350947   
O503     O      0.679900000000     0.563190000000     0.852900000000    -0.502696   
O504     O      0.687570000000     0.620030000000     0.760810000000    -0.355454   
O505     O      0.673420000000     0.574910000000     0.058730000000    -0.315774   
O506     O      0.674770000000     0.642320000000     0.124600000000    -0.519882   
O507     O      0.644930000000     0.624330000000     0.940890000000    -0.611614   
O508     O      0.712620000000     0.623870000000     0.947090000000    -0.461827   
O509     O      0.644360000000     0.673910000000     0.842660000000    -0.47593    
O510     O      0.713490000000     0.683350000000     0.029550000000    -0.62153    
O511     O      0.719900000000     0.673530000000     0.849470000000    -0.622313   
O512     O      0.637950000000     0.683690000000     0.023410000000    -0.471597   
Zr1      Zr     0.383090000000     0.424400000000     0.274820000000     1.29273    
Zr2      Zr     0.376150000000     0.430930000000     0.609500000000     1.29682    
Zr3      Zr     0.981330000000     0.925350000000     0.263080000000     1.28878    
Zr4      Zr     0.974180000000     0.931740000000     0.598260000000     1.29455    
Zr5      Zr     0.928820000000     0.362900000000     0.680020000000     1.26629    
Zr6      Zr     0.428290000000     0.993850000000     0.192330000000     1.25708    
Zr7      Zr     0.182580000000     0.223150000000     0.346340000000     1.29348    
Zr8      Zr     0.176610000000     0.231900000000     0.511540000000     1.29763    
Zr9      Zr     0.181610000000     0.125260000000     0.360790000000     1.28895    
Zr10     Zr     0.175810000000     0.134290000000     0.525680000000     1.29172    
Zr11     Zr     0.244480000000     0.178460000000     0.441960000000     1.26572    
Zr12     Zr     0.113280000000     0.178930000000     0.430620000000     1.25646    
Zr13     Zr     0.383090000000     0.424400000000     0.774820000000     1.29275    
Zr14     Zr     0.376150000000     0.430930000000     0.109500000000     1.29683    
Zr15     Zr     0.981330000000     0.925350000000     0.763070000000     1.28883    
Zr16     Zr     0.974180000000     0.931740000000     0.098260000000     1.29453    
Zr17     Zr     0.928820000000     0.362900000000     0.180020000000     1.26626    
Zr18     Zr     0.428290000000     0.993850000000     0.692330000000     1.25705    
Zr19     Zr     0.182580000000     0.223150000000     0.846340000000     1.29348    
Zr20     Zr     0.176610000000     0.231900000000     0.011540000000     1.29758    
Zr21     Zr     0.181610000000     0.125260000000     0.860790000000     1.28895    
Zr22     Zr     0.175810000000     0.134290000000     0.025680000000     1.29166    
Zr23     Zr     0.244480000000     0.178460000000     0.941960000000     1.26579    
Zr24     Zr     0.113280000000     0.178930000000     0.930620000000     1.2565     
Zr25     Zr     0.383090000000     0.924400000000     0.274820000000     1.29273    
Zr26     Zr     0.376150000000     0.930940000000     0.609500000000     1.29683    
Zr27     Zr     0.981330000000     0.425350000000     0.263080000000     1.28878    
Zr28     Zr     0.974180000000     0.431740000000     0.598260000000     1.29455    
Zr29     Zr     0.928820000000     0.862900000000     0.680020000000     1.2663     
Zr30     Zr     0.428290000000     0.493850000000     0.192330000000     1.25708    
Zr31     Zr     0.182580000000     0.723150000000     0.346340000000     1.29346    
Zr32     Zr     0.176610000000     0.731900000000     0.511540000000     1.29765    
Zr33     Zr     0.181610000000     0.625260000000     0.360790000000     1.28892    
Zr34     Zr     0.175810000000     0.634290000000     0.525680000000     1.29171    
Zr35     Zr     0.244480000000     0.678460000000     0.441960000000     1.26573    
Zr36     Zr     0.113280000000     0.678930000000     0.430620000000     1.25644    
Zr37     Zr     0.383090000000     0.924400000000     0.774820000000     1.29275    
Zr38     Zr     0.376150000000     0.930940000000     0.109500000000     1.29683    
Zr39     Zr     0.981330000000     0.425350000000     0.763070000000     1.28883    
Zr40     Zr     0.974180000000     0.431740000000     0.098260000000     1.29453    
Zr41     Zr     0.928820000000     0.862900000000     0.180020000000     1.26627    
Zr42     Zr     0.428290000000     0.493850000000     0.692330000000     1.25706    
Zr43     Zr     0.182580000000     0.723150000000     0.846340000000     1.29346    
Zr44     Zr     0.176610000000     0.731900000000     0.011540000000     1.2976     
Zr45     Zr     0.181610000000     0.625260000000     0.860790000000     1.28892    
Zr46     Zr     0.175810000000     0.634290000000     0.025680000000     1.29165    
Zr47     Zr     0.244480000000     0.678460000000     0.941960000000     1.26579    
Zr48     Zr     0.113280000000     0.678930000000     0.930620000000     1.25647    
Zr49     Zr     0.883090000000     0.424400000000     0.274820000000     1.29283    
Zr50     Zr     0.876150000000     0.430930000000     0.609500000000     1.29684    
Zr51     Zr     0.481330000000     0.925350000000     0.263080000000     1.28951    
Zr52     Zr     0.474180000000     0.931740000000     0.598260000000     1.29479    
Zr53     Zr     0.428810000000     0.362900000000     0.680020000000     1.26636    
Zr54     Zr     0.928290000000     0.993850000000     0.192330000000     1.25704    
Zr55     Zr     0.682580000000     0.223150000000     0.346340000000     1.29349    
Zr56     Zr     0.676610000000     0.231900000000     0.511540000000     1.29755    
Zr57     Zr     0.681610000000     0.125260000000     0.360790000000     1.28896    
Zr58     Zr     0.675810000000     0.134290000000     0.525680000000     1.29167    
Zr59     Zr     0.744480000000     0.178460000000     0.441960000000     1.26577    
Zr60     Zr     0.613280000000     0.178930000000     0.430620000000     1.25645    
Zr61     Zr     0.883090000000     0.424400000000     0.774820000000     1.29285    
Zr62     Zr     0.876150000000     0.430930000000     0.109500000000     1.29685    
Zr63     Zr     0.481330000000     0.925350000000     0.763070000000     1.28957    
Zr64     Zr     0.474180000000     0.931740000000     0.098260000000     1.29477    
Zr65     Zr     0.428810000000     0.362900000000     0.180020000000     1.26632    
Zr66     Zr     0.928290000000     0.993850000000     0.692330000000     1.25702    
Zr67     Zr     0.682580000000     0.223150000000     0.846340000000     1.29349    
Zr68     Zr     0.676610000000     0.231900000000     0.011540000000     1.2975     
Zr69     Zr     0.681610000000     0.125260000000     0.860790000000     1.28896    
Zr70     Zr     0.675810000000     0.134290000000     0.025680000000     1.29161    
Zr71     Zr     0.744480000000     0.178460000000     0.941960000000     1.26584    
Zr72     Zr     0.613280000000     0.178930000000     0.930620000000     1.25649    
Zr73     Zr     0.883090000000     0.924400000000     0.274820000000     1.29283    
Zr74     Zr     0.876150000000     0.930940000000     0.609500000000     1.29685    
Zr75     Zr     0.481330000000     0.425350000000     0.263080000000     1.28951    
Zr76     Zr     0.474180000000     0.431740000000     0.598260000000     1.29479    
Zr77     Zr     0.428810000000     0.862900000000     0.680020000000     1.26637    
Zr78     Zr     0.928290000000     0.493850000000     0.192330000000     1.25705    
Zr79     Zr     0.682580000000     0.723150000000     0.346340000000     1.29347    
Zr80     Zr     0.676610000000     0.731900000000     0.511540000000     1.29757    
Zr81     Zr     0.681610000000     0.625260000000     0.360790000000     1.28892    
Zr82     Zr     0.675810000000     0.634290000000     0.525680000000     1.29166    
Zr83     Zr     0.744480000000     0.678460000000     0.441960000000     1.26578    
Zr84     Zr     0.613280000000     0.678930000000     0.430620000000     1.25643    
Zr85     Zr     0.883090000000     0.924400000000     0.774820000000     1.29285    
Zr86     Zr     0.876150000000     0.930940000000     0.109500000000     1.29685    
Zr87     Zr     0.481330000000     0.425350000000     0.763070000000     1.28956    
Zr88     Zr     0.474180000000     0.431740000000     0.098260000000     1.29477    
Zr89     Zr     0.428810000000     0.862900000000     0.180020000000     1.26633    
Zr90     Zr     0.928290000000     0.493850000000     0.692330000000     1.25702    
Zr91     Zr     0.682580000000     0.723150000000     0.846340000000     1.29347    
Zr92     Zr     0.676610000000     0.731900000000     0.011540000000     1.29752    
Zr93     Zr     0.681610000000     0.625260000000     0.860790000000     1.28893    
Zr94     Zr     0.675810000000     0.634290000000     0.025680000000     1.2916     
Zr95     Zr     0.744480000000     0.678460000000     0.941960000000     1.26585    
Zr96     Zr     0.613280000000     0.678930000000     0.930620000000     1.25646    


