data_structure

_audit_creation_method RASPA-1.0
_audit_creation_date 2023-6-4
_audit_author_name 'Poobodin Mano'

_cell_length_a    34.111
_cell_length_b    37.5733
_cell_length_c    38.4253
_cell_angle_alpha 82.7728
_cell_angle_beta  96.308
_cell_angle_gamma 119.436
_cell_volume      42484

_symmetry_cell_setting          triclinic
_symmetry_space_group_name_Hall 'P 1'
_symmetry_space_group_name_H-M  'P 1'
_symmetry_Int_Tables_number     1

_symmetry_equiv_pos_as_xyz 'x,y,z'

loop_
_atom_site_label
_atom_site_type_symbol
_atom_site_fract_x
_atom_site_fract_y
_atom_site_fract_z
_atom_site_charge
C1       C      0.138120000000     0.084430000000     0.996880000000     0.42882    
C2       C      0.942060000000     0.960490000000     0.846150000000     0.416394   
C3       C      0.038760000000     0.121270000000     0.956110000000     0.427717   
C4       C      0.049190000000     0.922790000000     0.899840000000     0.432183   
C5       C      0.943400000000     0.833260000000     0.981020000000     0.426523   
C6       C      0.935760000000     0.022460000000     0.046550000000     0.414038   
C7       C      0.841610000000     0.869440000000     0.942400000000     0.403315   
C8       C      0.030420000000     0.991550000000     0.093300000000     0.422827   
C9       C      0.011950000000     0.882800000000     0.422000000000     0.411331   
C10      C      0.835190000000     0.964780000000     0.437740000000     0.412155   
C11      C      0.014470000000     0.988420000000     0.347720000000     0.398952   
C12      C      0.840870000000     0.868290000000     0.509790000000     0.416714   
C13      C      0.948810000000     0.963610000000     0.591170000000     0.397221   
C14      C      0.128510000000     0.084430000000     0.435530000000     0.423541   
C15      C      0.949030000000     0.074690000000     0.512180000000     0.418583   
C16      C      0.133910000000     0.003130000000     0.500170000000     0.428123   
C17      C      0.035100000000     0.373520000000     0.966110000000     0.409486   
C18      C      0.877070000000     0.464350000000     0.032860000000     0.42062    
C19      C      0.894720000000     0.355410000000     0.915530000000     0.425927   
C20      C      0.013170000000     0.473420000000     0.097740000000     0.426036   
C21      C      0.095950000000     0.602500000000     0.029020000000     0.423116   
C22      C      0.980360000000     0.486570000000     0.846270000000     0.406142   
C23      C      0.953950000000     0.582590000000     0.978710000000     0.422387   
C24      C      0.106520000000     0.499220000000     0.902230000000     0.409488   
C25      C      0.958130000000     0.338180000000     0.496050000000     0.390553   
C26      C      0.869600000000     0.506700000000     0.503390000000     0.427754   
C27      C      0.861900000000     0.349810000000     0.429640000000     0.431522   
C28      C      0.982640000000     0.496450000000     0.590840000000     0.429984   
C29      C      0.093620000000     0.598800000000     0.517300000000     0.424483   
C30      C      0.981160000000     0.459820000000     0.349390000000     0.407387   
C31      C      0.994390000000     0.613160000000     0.444310000000     0.384881   
C32      C      0.081140000000     0.450610000000     0.429860000000     0.414097   
C33      C      0.338800000000     0.953780000000     0.942160000000     0.400218   
C34      C      0.527190000000     0.885450000000     0.932250000000     0.425066   
C35      C      0.346560000000     0.871870000000     0.009760000000     0.395406   
C36      C      0.525050000000     0.994720000000     0.852140000000     0.414291   
C37      C      0.630660000000     0.092160000000     0.932440000000     0.389337   
C38      C      0.456640000000     0.967530000000     0.095770000000     0.414678   
C39      C      0.638400000000     0.995320000000     0.006580000000     0.395951   
C40      C      0.457990000000     0.075100000000     0.020190000000     0.41152    
C41      C      0.525480000000     0.119220000000     0.461420000000     0.42498    
C42      C      0.333980000000     0.866050000000     0.451060000000     0.406452   
C43      C      0.423390000000     0.031300000000     0.543260000000     0.393193   
C44      C      0.437610000000     0.960320000000     0.350260000000     0.396676   
C45      C      0.534170000000     0.930470000000     0.396270000000     0.373981   
C46      C      0.530220000000     0.993700000000     0.596950000000     0.387345   
C47      C      0.432830000000     0.832060000000     0.488100000000     0.403909   
C48      C      0.630260000000     0.082460000000     0.501430000000     0.403652   
C49      C      0.473460000000     0.343820000000     0.000590000000     0.387081   
C50      C      0.385700000000     0.513870000000     0.004920000000     0.396146   
C51      C      0.377340000000     0.355150000000     0.936050000000     0.407757   
C52      C      0.494580000000     0.501160000000     0.095400000000     0.429043   
C53      C      0.609420000000     0.605280000000     0.021830000000     0.430765   
C54      C      0.506120000000     0.468900000000     0.855310000000     0.427943   
C55      C      0.515080000000     0.620860000000     0.949310000000     0.384059   
C56      C      0.596940000000     0.455690000000     0.936360000000     0.383169   
C57      C      0.519380000000     0.371640000000     0.470670000000     0.402507   
C58      C      0.362150000000     0.465230000000     0.533290000000     0.393031   
C59      C      0.379990000000     0.352880000000     0.419850000000     0.394884   
C60      C      0.498690000000     0.474930000000     0.599930000000     0.40038    
C61      C      0.581950000000     0.602070000000     0.530670000000     0.395197   
C62      C      0.468310000000     0.485070000000     0.348340000000     0.404897   
C63      C      0.438810000000     0.582330000000     0.478230000000     0.428749   
C64      C      0.591370000000     0.496380000000     0.405550000000     0.382549   
C65      C      0.497340000000     0.431780000000     0.805750000000     0.409709   
C66      C      0.530460000000     0.504360000000     0.799920000000     0.0924249  
C67      C      0.497790000000     0.431570000000     0.769390000000    -0.210634   
C68      C      0.495250000000     0.495390000000     0.689710000000    -0.0752276  
C69      C      0.531810000000     0.505160000000     0.763930000000    -0.121105   
C70      C      0.509360000000     0.469310000000     0.709340000000     0.0149822  
C71      C      0.513710000000     0.468500000000     0.748070000000     0.0937951  
C72      C      0.492070000000     0.497000000000     0.653250000000     0.0681416  
C73      C      0.515730000000     0.447000000000     0.655040000000     0.0680295  
C74      C      0.519360000000     0.444700000000     0.691680000000    -0.0737681  
C75      C      0.513240000000     0.485960000000     0.154770000000     0.417562   
C76      C      0.477140000000     0.526710000000     0.141690000000     0.0953498  
C77      C      0.509290000000     0.485190000000     0.190430000000    -0.216339   
C78      C      0.468890000000     0.460930000000     0.259450000000    -0.0740639  
C79      C      0.471540000000     0.525540000000     0.177400000000    -0.119475   
C80      C      0.477610000000     0.497890000000     0.239890000000     0.0154547  
C81      C      0.486430000000     0.503380000000     0.202130000000     0.0973984  
C82      C      0.465010000000     0.456970000000     0.295480000000     0.0704168  
C83      C      0.473810000000     0.523860000000     0.293190000000     0.0685132  
C84      C      0.478960000000     0.529260000000     0.257020000000    -0.0726605  
C85      C      0.419040000000     0.632690000000     0.450750000000     0.410762   
C86      C      0.416480000000     0.616780000000     0.512530000000     0.0927585  
C87      C      0.409710000000     0.664300000000     0.453820000000    -0.213778   
C88      C      0.383240000000     0.726810000000     0.464890000000    -0.076522   
C89      C      0.406110000000     0.647440000000     0.516310000000    -0.122998   
C90      C      0.403360000000     0.710880000000     0.491240000000     0.0141611  
C91      C      0.404580000000     0.672830000000     0.487000000000     0.0941184  
C92      C      0.391560000000     0.766870000000     0.465220000000     0.0691434  
C93      C      0.434030000000     0.773900000000     0.519540000000     0.0669586  
C94      C      0.427290000000     0.734220000000     0.519640000000    -0.0754579  
C95      C      0.519280000000     0.176130000000     0.431090000000     0.409578   
C96      C      0.562590000000     0.183930000000     0.485160000000     0.0931203  
C97      C      0.524520000000     0.215220000000     0.431540000000    -0.215301   
C98      C      0.541980000000     0.286160000000     0.496250000000    -0.0744788  
C99      C      0.568960000000     0.223310000000     0.486060000000    -0.122839   
C100     C      0.547430000000     0.277040000000     0.463430000000     0.013721   
C101     C      0.548230000000     0.238690000000     0.459830000000     0.0947383  
C102     C      0.534460000000     0.319010000000     0.498490000000     0.0668978  
C103     C      0.539140000000     0.334740000000     0.436810000000     0.0675536  
C104     C      0.547590000000     0.302720000000     0.433730000000    -0.0753917  
C105     C      0.564520000000     0.990210000000     0.805680000000     0.405299   
C106     C      0.506860000000     0.008440000000     0.792150000000     0.0911271  
C107     C      0.569460000000     0.991260000000     0.769610000000    -0.20665    
C108     C      0.542240000000     0.967580000000     0.691810000000    -0.075205   
C109     C      0.511780000000     0.010690000000     0.756240000000    -0.118355   
C110     C      0.545850000000     0.001680000000     0.706010000000     0.0160672  
C111     C      0.542900000000     0.001600000000     0.744450000000     0.0914049  
C112     C      0.538530000000     0.965900000000     0.655240000000     0.0648458  
C113     C      0.545300000000     0.032170000000     0.646490000000     0.066201   
C114     C      0.548290000000     0.034520000000     0.682830000000    -0.0748262  
C115     C      0.472510000000     0.951300000000     0.156360000000     0.407953   
C116     C      0.415990000000     0.970780000000     0.141260000000     0.0893752  
C117     C      0.465180000000     0.947750000000     0.192000000000    -0.209484   
C118     C      0.432500000000     0.989700000000     0.255450000000    -0.0742359  
C119     C      0.408750000000     0.968480000000     0.176980000000    -0.116057   
C120     C      0.428360000000     0.955560000000     0.241030000000     0.0154858  
C121     C      0.433530000000     0.956810000000     0.202810000000     0.0919268  
C122     C      0.434140000000     0.990290000000     0.291990000000     0.0661483  
C123     C      0.424110000000     0.922850000000     0.300260000000     0.0676105  
C124     C      0.423310000000     0.921600000000     0.263880000000    -0.0733356  
C125     C      0.576300000000     0.856200000000     0.933130000000     0.41112    
C126     C      0.500310000000     0.820480000000     0.911190000000     0.0945235  
C127     C      0.579720000000     0.820120000000     0.933990000000    -0.203167   
C128     C      0.533900000000     0.719400000000     0.901920000000    -0.0733812  
C129     C      0.503190000000     0.784820000000     0.910390000000    -0.117915   
C130     C      0.541200000000     0.743190000000     0.929700000000     0.0134398  
C131     C      0.542360000000     0.783650000000     0.923420000000     0.0905138  
C132     C      0.526200000000     0.678890000000     0.908830000000     0.0621902  
C133     C      0.531310000000     0.684550000000     0.970000000000     0.0624938  
C134     C      0.540450000000     0.725420000000     0.964020000000    -0.0755088  
C135     C      0.412820000000     0.108970000000     0.015060000000     0.404886   
C136     C      0.488110000000     0.142070000000     0.038920000000     0.0886953  
C137     C      0.411230000000     0.145950000000     0.013680000000    -0.202928   
C138     C      0.457300000000     0.245610000000     0.047220000000    -0.0732305  
C139     C      0.486990000000     0.178770000000     0.039000000000    -0.117374   
C140     C      0.451190000000     0.222520000000     0.019180000000     0.0142172  
C141     C      0.448980000000     0.181570000000     0.025070000000     0.089469   
C142     C      0.463780000000     0.285810000000     0.040670000000     0.0635685  
C143     C      0.460090000000     0.281250000000     0.979420000000     0.063211   
C144     C      0.452140000000     0.240710000000     0.985020000000    -0.0742398  
C145     C      0.841050000000     0.279050000000     0.431020000000     0.414565   
C146     C      0.786110000000     0.299130000000     0.435570000000     0.0961486  
C147     C      0.813000000000     0.240100000000     0.446780000000    -0.214209   
C148     C      0.739980000000     0.155570000000     0.470850000000    -0.073788   
C149     C      0.756740000000     0.260380000000     0.450060000000    -0.122287   
C150     C      0.742110000000     0.191930000000     0.478260000000     0.0134514  
C151     C      0.771380000000     0.231340000000     0.458520000000     0.0945543  
C152     C      0.705230000000     0.118300000000     0.483480000000     0.0673711  
C153     C      0.677970000000     0.151820000000     0.514190000000     0.0671246  
C154     C      0.713050000000     0.189800000000     0.502680000000    -0.0747654  
C155     C      0.117590000000     0.669980000000     0.518080000000     0.412093   
C156     C      0.171050000000     0.647180000000     0.517520000000     0.0948079  
C157     C      0.148650000000     0.709090000000     0.504620000000    -0.214313   
C158     C      0.225600000000     0.792650000000     0.484530000000    -0.0739924  
C159     C      0.203210000000     0.685990000000     0.505110000000    -0.122527   
C160     C      0.222980000000     0.755990000000     0.477460000000     0.0140263  
C161     C      0.191070000000     0.716590000000     0.495800000000     0.0938018  
C162     C      0.260320000000     0.829640000000     0.471510000000     0.068082   
C163     C      0.287540000000     0.795380000000     0.441660000000     0.0685551  
C164     C      0.252620000000     0.757550000000     0.453840000000    -0.0749214  
C165     C      0.791700000000     0.484420000000     0.505210000000     0.410192   
C166     C      0.839270000000     0.548850000000     0.475810000000     0.0905582  
C167     C      0.753680000000     0.485090000000     0.488720000000    -0.217855   
C168     C      0.684390000000     0.475260000000     0.430870000000    -0.0741134  
C169     C      0.801620000000     0.550150000000     0.458280000000    -0.120236   
C170     C      0.717910000000     0.513460000000     0.441630000000     0.0147464  
C171     C      0.758350000000     0.516740000000     0.463190000000     0.0925479  
C172     C      0.643280000000     0.470670000000     0.415750000000     0.0657373  
C173     C      0.669460000000     0.541650000000     0.417590000000     0.0657063  
C174     C      0.711020000000     0.547350000000     0.433040000000    -0.0725038  
C175     C      0.161040000000     0.483840000000     0.438430000000     0.407823   
C176     C      0.116710000000     0.417340000000     0.465920000000     0.0927533  
C177     C      0.199740000000     0.486610000000     0.457260000000    -0.213412   
C178     C      0.275380000000     0.495550000000     0.510250000000    -0.073238   
C179     C      0.154510000000     0.419650000000     0.485940000000    -0.117305   
C180     C      0.238130000000     0.457570000000     0.502480000000     0.0142523  
C181     C      0.196840000000     0.454850000000     0.482190000000     0.0945024  
C182     C      0.316200000000     0.497640000000     0.523930000000     0.0654546  
C183     C      0.282620000000     0.425330000000     0.526790000000     0.0681093  
C184     C      0.241820000000     0.422150000000     0.512570000000    -0.0741257  
C185     C      0.969540000000     0.523400000000     0.639100000000     0.415486   
C186     C      0.005490000000     0.482350000000     0.648660000000     0.100605   
C187     C      0.968280000000     0.523250000000     0.675420000000    -0.208484   
C188     C      0.984000000000     0.529050000000     0.754730000000    -0.0729375  
C189     C      0.006060000000     0.482750000000     0.684680000000    -0.119273   
C190     C      0.981120000000     0.497340000000     0.737110000000     0.0170496  
C191     C      0.985520000000     0.501700000000     0.698620000000     0.0940765  
C192     C      0.982100000000     0.524450000000     0.791240000000     0.0701243  
C193     C      0.974210000000     0.457930000000     0.793070000000     0.0702034  
C194     C      0.974720000000     0.461020000000     0.756740000000    -0.0746566  
C195     C      0.007220000000     0.435000000000     0.153480000000     0.410751   
C196     C      0.022180000000     0.504040000000     0.150120000000     0.0971511  
C197     C      0.002520000000     0.431060000000     0.189660000000    -0.208843   
C198     C      0.006150000000     0.433830000000     0.268900000000    -0.0634973  
C199     C      0.019450000000     0.501550000000     0.186150000000    -0.119103   
C200     C      0.997520000000     0.459960000000     0.243710000000     0.0122308  
C201     C      0.007260000000     0.464210000000     0.206230000000     0.0985633  
C202     C      0.998280000000     0.432370000000     0.304150000000     0.0677249  
C203     C      0.973360000000     0.481540000000     0.289870000000     0.0730523  
C204     C      0.979230000000     0.482650000000     0.254580000000    -0.0731443  
C205     C      0.872470000000     0.286160000000     0.905510000000     0.405597   
C206     C      0.822390000000     0.313200000000     0.891050000000     0.0930822  
C207     C      0.836000000000     0.245850000000     0.904010000000    -0.20307    
C208     C      0.718710000000     0.199650000000     0.925500000000    -0.0760772  
C209     C      0.786140000000     0.274080000000     0.887680000000    -0.117445   
C210     C      0.751050000000     0.199370000000     0.906320000000     0.0148252  
C211     C      0.791770000000     0.239550000000     0.897250000000     0.0887512  
C212     C      0.679470000000     0.163760000000     0.933640000000     0.0642221  
C213     C      0.702890000000     0.125150000000     0.905850000000     0.063466   
C214     C      0.743300000000     0.161310000000     0.896990000000    -0.0706563  
C215     C      0.113360000000     0.669170000000     0.043970000000     0.405404   
C216     C      0.170370000000     0.650130000000     0.046060000000     0.0925032  
C217     C      0.146520000000     0.710820000000     0.044770000000    -0.204509   
C218     C      0.241000000000     0.798390000000     0.052440000000    -0.0728889  
C219     C      0.203800000000     0.690670000000     0.048080000000    -0.119628   
C220     C      0.227480000000     0.764140000000     0.033560000000     0.0147306  
C221     C      0.192250000000     0.721900000000     0.044690000000     0.0897039  
C222     C      0.279740000000     0.835720000000     0.043030000000     0.0643161  
C223     C      0.289090000000     0.805940000000     0.995980000000     0.0659812  
C224     C      0.250900000000     0.769100000000     0.004170000000    -0.0770721  
C225     C      0.831430000000     0.497380000000     0.028660000000     0.409033   
C226     C      0.797480000000     0.425320000000     0.027940000000     0.0941315  
C227     C      0.790390000000     0.495860000000     0.016470000000    -0.208883   
C228     C      0.714810000000     0.490670000000     0.965230000000    -0.0744548  
C229     C      0.756600000000     0.422880000000     0.015000000000    -0.118193   
C230     C      0.711800000000     0.457140000000     0.987860000000     0.0175451  
C231     C      0.753020000000     0.458610000000     0.007280000000     0.0918924  
C232     C      0.676270000000     0.488880000000     0.947000000000     0.0671185  
C233     C      0.631890000000     0.420410000000     0.970400000000     0.0675988  
C234     C      0.669480000000     0.421570000000     0.989960000000    -0.072485   
C235     C      0.185500000000     0.545020000000     0.911610000000     0.406735   
C236     C      0.158180000000     0.473420000000     0.914010000000     0.0876832  
C237     C      0.226970000000     0.551000000000     0.927620000000    -0.206893   
C238     C      0.317100000000     0.555000000000     0.955980000000    -0.0731618  
C239     C      0.199290000000     0.478370000000     0.929480000000    -0.118705   
C240     C      0.273890000000     0.521240000000     0.960740000000     0.0146638  
C241     C      0.233320000000     0.517150000000     0.938650000000     0.0916042  
C242     C      0.354840000000     0.554650000000     0.974460000000     0.0665642  
C243     C      0.307560000000     0.490270000000     0.003920000000     0.0657987  
C244     C      0.269440000000     0.490050000000     0.986750000000    -0.0770713  
C245     C      0.771350000000     0.834270000000     0.540840000000     0.411411   
C246     C      0.786630000000     0.799360000000     0.501600000000     0.0891129  
C247     C      0.731610000000     0.797600000000     0.550170000000    -0.199142   
C248     C      0.637110000000     0.711340000000     0.543390000000    -0.0724714  
C249     C      0.747790000000     0.763170000000     0.509950000000    -0.11554    
C250     C      0.682360000000     0.720030000000     0.546180000000     0.0162731  
C251     C      0.720390000000     0.761200000000     0.535350000000     0.0885619  
C252     C      0.602240000000     0.670210000000     0.542860000000     0.0644043  
C253     C      0.656120000000     0.647090000000     0.550580000000     0.0682394  
C254     C      0.691130000000     0.687020000000     0.552680000000    -0.0770566  
C255     C      0.191990000000     0.145370000000     0.454280000000     0.415832   
C256     C      0.193070000000     0.121270000000     0.400440000000     0.100294   
C257     C      0.231260000000     0.181790000000     0.446880000000    -0.214133   
C258     C      0.272290000000     0.262790000000     0.403460000000    -0.0744834  
C259     C      0.232460000000     0.158300000000     0.391850000000    -0.116248   
C260     C      0.285000000000     0.232530000000     0.404620000000     0.0137691  
C261     C      0.250700000000     0.189610000000     0.414750000000     0.0951344  
C262     C      0.304980000000     0.303600000000     0.405480000000     0.0682337  
C263     C      0.363200000000     0.286760000000     0.404180000000     0.065538   
C264     C      0.330930000000     0.244840000000     0.403200000000    -0.0716548  
C265     C      0.759400000000     0.941110000000     0.453770000000     0.40641    
C266     C      0.777300000000     0.958340000000     0.393920000000     0.0895646  
C267     C      0.714370000000     0.930350000000     0.444270000000    -0.208088   
C268     C      0.616140000000     0.893720000000     0.413010000000    -0.0762937  
C269     C      0.732700000000     0.948450000000     0.383740000000    -0.117485   
C270     C      0.654450000000     0.928120000000     0.399370000000     0.0113466  
C271     C      0.700640000000     0.934310000000     0.409030000000     0.0906766  
C272     C      0.574120000000     0.892550000000     0.408430000000     0.0636358  
C273     C      0.607030000000     0.957470000000     0.375950000000     0.0662818  
C274     C      0.648960000000     0.959140000000     0.379140000000    -0.0752236  
C275     C      0.210120000000     0.028190000000     0.484160000000     0.411853   
C276     C      0.194830000000     0.024470000000     0.543620000000     0.0972251  
C277     C      0.255890000000     0.042370000000     0.493810000000    -0.207546   
C278     C      0.355280000000     0.080700000000     0.521690000000    -0.0755547  
C279     C      0.240210000000     0.038360000000     0.554000000000    -0.116902   
C280     C      0.317220000000     0.052870000000     0.540400000000     0.0140285  
C281     C      0.271260000000     0.046650000000     0.529140000000     0.0938013  
C282     C      0.395070000000     0.077800000000     0.527260000000     0.0607885  
C283     C      0.361220000000     0.023160000000     0.571100000000     0.0708     
C284     C      0.321830000000     0.026040000000     0.567130000000    -0.0747872  
C285     C      0.981600000000     0.816110000000     0.401640000000     0.407118   
C286     C      0.054990000000     0.847550000000     0.429330000000     0.0856551  
C287     C      0.982350000000     0.779110000000     0.402310000000    -0.211496   
C288     C      0.016560000000     0.716700000000     0.459100000000    -0.0655336  
C289     C      0.056060000000     0.810350000000     0.431520000000    -0.116241   
C290     C      0.015980000000     0.734110000000     0.424810000000     0.0122952  
C291     C      0.018930000000     0.775330000000     0.418620000000     0.0936281  
C292     C      0.008590000000     0.676180000000     0.465040000000     0.0689732  
C293     C      0.001730000000     0.670090000000     0.403830000000     0.0668517  
C294     C      0.008200000000     0.710220000000     0.396990000000    -0.0712557  
C295     C      0.976280000000     0.139800000000     0.533950000000     0.409268   
C296     C      0.900470000000     0.103940000000     0.511590000000     0.0900278  
C297     C      0.972970000000     0.175320000000     0.534620000000    -0.211861   
C298     C      0.937110000000     0.238610000000     0.542690000000    -0.0718149  
C299     C      0.896620000000     0.139760000000     0.510710000000    -0.114436   
C300     C      0.934600000000     0.216570000000     0.514940000000     0.0124535  
C301     C      0.933720000000     0.176270000000     0.521410000000     0.092417   
C302     C      0.944250000000     0.278990000000     0.535980000000     0.0641093  
C303     C      0.948110000000     0.276560000000     0.475280000000     0.0755164  
C304     C      0.939790000000     0.235940000000     0.480950000000    -0.0676897  
C305     C      0.925420000000     0.921910000000     0.795880000000     0.412751   
C306     C      0.934080000000     0.988960000000     0.788260000000     0.0916161  
C307     C      0.922430000000     0.920460000000     0.759420000000    -0.206996   
C308     C      0.961480000000     0.946640000000     0.686930000000    -0.0741467  
C309     C      0.930400000000     0.988050000000     0.751660000000    -0.117295   
C310     C      0.929660000000     0.954990000000     0.698510000000     0.0173382  
C311     C      0.925960000000     0.954040000000     0.736870000000     0.0949806  
C312     C      0.967070000000     0.949510000000     0.651100000000     0.0707521  
C313     C      0.908840000000     0.966930000000     0.637330000000     0.0724693  
C314     C      0.903140000000     0.965320000000     0.673290000000    -0.0698054  
C315     C      0.043410000000     0.029160000000     0.143570000000     0.415921   
C316     C      0.033200000000     0.961570000000     0.151550000000     0.0950813  
C317     C      0.044100000000     0.030060000000     0.179950000000    -0.206144   
C318     C      0.001300000000     0.002440000000     0.251650000000    -0.0630332  
C319     C      0.034760000000     0.961980000000     0.188100000000    -0.116213   
C320     C      0.034150000000     0.994980000000     0.240750000000     0.0126351  
C321     C      0.038990000000     0.996060000000     0.202600000000     0.0957773  
C322     C      0.995240000000     0.999930000000     0.287380000000     0.060142   
C323     C      0.054820000000     0.984480000000     0.302210000000     0.0684623  
C324     C      0.061000000000     0.985710000000     0.266440000000    -0.0694042  
C325     C      0.686530000000     0.655880000000     0.020900000000     0.415406   
C326     C      0.629860000000     0.675500000000     0.016450000000     0.09377    
C327     C      0.716880000000     0.694060000000     0.005710000000    -0.216822   
C328     C      0.762900000000     0.760700000000     0.949580000000    -0.0715338  
C329     C      0.658940000000     0.713690000000     0.000200000000    -0.119836   
C330     C      0.732260000000     0.760280000000     0.971530000000     0.0146504  
C331     C      0.702160000000     0.722240000000     0.992560000000     0.0959091  
C332     C      0.796910000000     0.798040000000     0.935630000000     0.0697319  
C333     C      0.766460000000     0.833530000000     0.959860000000     0.0704612  
C334     C      0.732490000000     0.797040000000     0.974530000000    -0.071859   
C335     C      0.214260000000     0.121430000000     0.980120000000     0.414786   
C336     C      0.185440000000     0.153020000000     0.011660000000     0.0980654  
C337     C      0.250010000000     0.159350000000     0.969730000000    -0.210727   
C338     C      0.270160000000     0.265430000000     0.953330000000    -0.0777824  
C339     C      0.221230000000     0.191490000000     0.002140000000    -0.108456   
C340     C      0.283720000000     0.235650000000     0.961830000000     0.0187383  
C341     C      0.252030000000     0.195090000000     0.978680000000     0.0934878  
C342     C      0.301030000000     0.304720000000     0.940850000000     0.0715468  
C343     C      0.356650000000     0.284570000000     0.939710000000     0.0728386  
C344     C      0.326890000000     0.244940000000     0.953210000000    -0.0734407  
C345     C      0.863860000000     0.997840000000     0.068510000000     0.41147    
C346     C      0.897750000000     0.061880000000     0.034650000000     0.0906722  
C347     C      0.822560000000     0.997470000000     0.065380000000    -0.214546   
C348     C      0.740640000000     0.010950000000     0.060620000000    -0.0707826  
C349     C      0.856400000000     0.061920000000     0.030220000000    -0.123378   
C350     C      0.772070000000     0.023430000000     0.035020000000     0.0149505  
C351     C      0.817840000000     0.028530000000     0.044500000000     0.0933162  
C352     C      0.696210000000     0.001880000000     0.050700000000     0.0708441  
C353     C      0.713100000000     0.016780000000     0.990670000000     0.0738794  
C354     C      0.757960000000     0.026720000000     0.999740000000    -0.0709097  
C355     C      0.109640000000     0.929520000000     0.870330000000     0.419604   
C356     C      0.077440000000     0.876540000000     0.915780000000     0.0904895  
C357     C      0.149410000000     0.927200000000     0.874460000000    -0.211675   
C358     C      0.217210000000     0.914500000000     0.948500000000    -0.0692915  
C359     C      0.117590000000     0.874310000000     0.921460000000    -0.119913   
C360     C      0.201440000000     0.909010000000     0.913280000000     0.0163132  
C361     C      0.155090000000     0.901770000000     0.902060000000     0.0953968  
C362     C      0.263120000000     0.929210000000     0.957810000000     0.0732287  
C363     C      0.277860000000     0.931310000000     0.898550000000     0.06815    
C364     C      0.232310000000     0.916830000000     0.888360000000    -0.0713391  
C365     C      0.927950000000     0.769950000000     0.014710000000     0.413485   
C366     C      0.923750000000     0.774030000000     0.952430000000     0.0948556  
C367     C      0.920520000000     0.729800000000     0.016040000000    -0.210132   
C368     C      0.944910000000     0.664210000000     0.013200000000    -0.0664412  
C369     C      0.917910000000     0.734760000000     0.952900000000    -0.118462   
C370     C      0.920430000000     0.674020000000     0.985700000000     0.022496   
C371     C      0.917750000000     0.712450000000     0.984950000000     0.096111   
C372     C      0.953950000000     0.632370000000     0.010990000000     0.0965102  
C373     C      0.914710000000     0.618800000000     0.955220000000     0.0818016  
C374     C      0.903540000000     0.649540000000     0.957170000000    -0.0736867  
C375     C      0.079150000000     0.186850000000     0.979320000000     0.415388   
C376     C      0.035980000000     0.178820000000     0.925180000000     0.0933953  
C377     C      0.086190000000     0.226550000000     0.979520000000    -0.217539   
C378     C      0.063150000000     0.305330000000     0.927660000000    -0.0733253  
C379     C      0.041590000000     0.218100000000     0.925040000000    -0.120788   
C380     C      0.063940000000     0.279770000000     0.957140000000     0.016774   
C381     C      0.065300000000     0.241750000000     0.953250000000     0.096738   
C382     C      0.054430000000     0.337080000000     0.931300000000     0.0791111  
C383     C      0.051050000000     0.321130000000     0.993000000000     0.0729731  
C384     C      0.058890000000     0.288610000000     0.990230000000    -0.072223   
F1       F      0.479470000000     0.395060000000     0.825180000000    -0.453347   
F2       F      0.535880000000     0.467770000000     0.145030000000    -0.458021   
F3       F      0.425810000000     0.627130000000     0.418100000000    -0.457109   
F4       F      0.494190000000     0.154180000000     0.403690000000    -0.462461   
F5       F      0.590820000000     0.979530000000     0.828850000000    -0.448399   
F6       F      0.503620000000     0.941580000000     0.147990000000    -0.458763   
F7       F      0.612220000000     0.890090000000     0.945670000000    -0.448263   
F8       F      0.376080000000     0.075890000000     0.002220000000    -0.450283   
F9       F      0.881470000000     0.286760000000     0.420710000000    -0.460173   
F10      F      0.076310000000     0.663540000000     0.524950000000    -0.455582   
F11      F      0.785500000000     0.452140000000     0.528790000000    -0.456686   
F12      F      0.165720000000     0.515180000000     0.414260000000    -0.462412   
F13      F      0.950440000000     0.542950000000     0.617590000000    -0.444782   
F14      F      0.999990000000     0.401310000000     0.138360000000    -0.45679    
F15      F      0.914170000000     0.291180000000     0.915740000000    -0.455481   
F16      F      0.069340000000     0.659840000000     0.040450000000    -0.457996   
F17      F      0.867250000000     0.534550000000     0.035010000000    -0.451588   
F18      F      0.180840000000     0.578690000000     0.901130000000    -0.467797   
F19      F      0.782010000000     0.868400000000     0.556820000000    -0.433033   
F20      F      0.174680000000     0.139810000000     0.486000000000    -0.452252   
F21      F      0.770340000000     0.936530000000     0.488520000000    -0.435156   
F22      F      0.197400000000     0.024080000000     0.449470000000    -0.451584   
F23      F      0.944570000000     0.817590000000     0.386140000000    -0.45111    
F24      F      0.015890000000     0.141020000000     0.546060000000    -0.451841   
F25      F      0.922570000000     0.888410000000     0.816090000000    -0.448724   
F26      F      0.047540000000     0.062980000000     0.123150000000    -0.441363   
F27      F      0.701250000000     0.628310000000     0.031440000000    -0.45998    
F28      F      0.213460000000     0.087530000000     0.970290000000    -0.446197   
F29      F      0.866500000000     0.966150000000     0.087930000000    -0.453809   
F30      F      0.107100000000     0.957760000000     0.845680000000    -0.450125   
F31      F      0.931650000000     0.785730000000     0.045610000000    -0.456873   
F32      F      0.099260000000     0.173250000000     0.006060000000    -0.455482   
H1       H      0.020560000000     0.987270000000     0.887170000000     0.217583   
H2       H      0.951820000000     0.045510000000     0.970860000000     0.197457   
H3       H      0.907120000000     0.883830000000     0.993070000000     0.202674   
H4       H      0.079250000000     0.996870000000     0.026830000000     0.193499   
H5       H      0.929580000000     0.069020000000     0.906670000000     0.135788   
H6       H      0.864230000000     0.006250000000     0.942320000000     0.20534    
H7       H      0.842510000000     0.902870000000     0.037040000000     0.156975   
H8       H      0.915490000000     0.869880000000     0.071350000000     0.211213   
H9       H      0.075410000000     0.931210000000     0.061470000000     0.137683   
H10      H      0.114840000000     0.939970000000     0.971520000000     0.211478   
H11      H      0.129230000000     0.053030000000     0.898700000000     0.143486   
H12      H      0.062440000000     0.077540000000     0.865850000000     0.198557   
H13      H      0.958420000000     0.862760000000     0.089160000000     0.232106   
H14      H      0.137310000000     0.975290000000     0.000810000000     0.213263   
H15      H      0.022890000000     0.090100000000     0.849440000000     0.20903    
H16      H      0.844370000000     0.997360000000     0.982170000000     0.210718   
H17      H      0.875060000000     0.917140000000     0.447880000000     0.200396   
H18      H      0.030010000000     0.045890000000     0.400120000000     0.191517   
H19      H      0.998370000000     0.029870000000     0.539230000000     0.202677   
H20      H      0.033780000000     0.918330000000     0.490900000000     0.204532   
H21      H      0.968690000000     0.058050000000     0.361090000000     0.137093   
H22      H      0.996910000000     0.114890000000     0.420600000000     0.210725   
H23      H      0.085170000000     0.107420000000     0.524940000000     0.157368   
H24      H      0.084320000000     0.040700000000     0.579960000000     0.20387    
H25      H      0.004480000000     0.898300000000     0.577390000000     0.146189   
H26      H      0.977390000000     0.838430000000     0.504100000000     0.201624   
H27      H      0.871570000000     0.839620000000     0.423630000000     0.144699   
H28      H      0.874040000000     0.909100000000     0.367740000000     0.200082   
H29      H      0.085600000000     0.999120000000     0.600250000000     0.208276   
H30      H      0.945460000000     0.840110000000     0.533300000000     0.205242   
H31      H      0.876480000000     0.949400000000     0.341860000000     0.209461   
H32      H      0.045690000000     0.123270000000     0.406480000000     0.200669   
H33      H      0.946470000000     0.433230000000     0.047260000000     0.210174   
H34      H      0.918700000000     0.443300000000     0.904400000000     0.195737   
H35      H      0.039460000000     0.582210000000     0.966540000000     0.206146   
H36      H      0.081530000000     0.459530000000     0.968920000000     0.199748   
H37      H      0.843150000000     0.449160000000     0.952760000000     0.142545   
H38      H      0.876790000000     0.489470000000     0.888900000000     0.193656   
H39      H      0.045380000000     0.598300000000     0.891240000000     0.13963    
H40      H      0.131700000000     0.619060000000     0.923790000000     0.211798   
H41      H      0.155660000000     0.533470000000     0.013360000000     0.141284   
H42      H      0.116360000000     0.447180000000     0.034330000000     0.198867   
H43      H      0.951240000000     0.362760000000     0.059040000000     0.14158    
H44      H      0.876250000000     0.336780000000     0.015060000000     0.204086   
H45      H      0.171380000000     0.618340000000     0.953200000000     0.224317   
H46      H      0.100530000000     0.447880000000     0.073830000000     0.218292   
H47      H      0.831090000000     0.343760000000     0.011590000000     0.207927   
H48      H      0.900460000000     0.539930000000     0.877530000000     0.208536   
H49      H      0.912760000000     0.455620000000     0.537580000000     0.216895   
H50      H      0.911650000000     0.443520000000     0.396400000000     0.201066   
H51      H      0.049970000000     0.575840000000     0.454910000000     0.201565   
H52      H      0.037620000000     0.425310000000     0.493670000000     0.201411   
H53      H      0.832990000000     0.475810000000     0.426620000000     0.14261    
H54      H      0.907520000000     0.542650000000     0.376470000000     0.209199   
H55      H      0.069970000000     0.578310000000     0.384030000000     0.138312   
H56      H      0.150410000000     0.578340000000     0.438220000000     0.216034   
H57      H      0.114520000000     0.496720000000     0.539760000000     0.141162   
H58      H      0.050910000000     0.413890000000     0.562270000000     0.196903   
H59      H      0.883710000000     0.369610000000     0.552550000000     0.137421   
H60      H      0.803670000000     0.374950000000     0.502050000000     0.210407   
H61      H      0.171980000000     0.561130000000     0.473240000000     0.216176   
H62      H      0.022830000000     0.410560000000     0.596680000000     0.207593   
H63      H      0.783490000000     0.396630000000     0.469560000000     0.214028   
H64      H      0.917520000000     0.520370000000     0.346030000000     0.206868   
H65      H      0.476670000000     0.929220000000     0.904270000000     0.196694   
H66      H      0.443880000000     0.912740000000     0.042960000000     0.201264   
H67      H      0.597780000000     0.043170000000     0.995490000000     0.196254   
H68      H      0.437590000000     0.038820000000     0.951970000000     0.214337   
H69      H      0.424580000000     0.826520000000     0.022090000000     0.140724   
H70      H      0.558450000000     0.910590000000     0.069210000000     0.221421   
H71      H      0.593530000000     0.051260000000     0.068430000000     0.128181   
H72      H      0.605810000000     0.126550000000     0.018000000000     0.193296   
H73      H      0.532330000000     0.117470000000     0.912890000000     0.143216   
H74      H      0.416880000000     0.048920000000     0.882620000000     0.20847    
H75      H      0.391980000000     0.916160000000     0.870710000000     0.129044   
H76      H      0.385590000000     0.845220000000     0.917510000000     0.190991   
H77      H      0.585300000000     0.152850000000     0.991020000000     0.202606   
H78      H      0.465730000000     0.063950000000     0.864630000000     0.205994   
H79      H      0.389500000000     0.812550000000     0.949780000000     0.200247   
H80      H      0.510640000000     0.899840000000     0.086730000000     0.229516   
H81      H      0.390270000000     0.954830000000     0.417720000000     0.19639    
H82      H      0.452580000000     0.966290000000     0.556600000000     0.206547   
H83      H      0.519920000000     0.908140000000     0.471780000000     0.20102    
H84      H      0.563220000000     0.069500000000     0.449190000000     0.196886   
H85      H      0.342500000000     0.901940000000     0.546650000000     0.134359   
H86      H      0.412480000000     0.875470000000     0.578780000000     0.190274   
H87      H      0.574790000000     0.933420000000     0.556480000000     0.145558   
H88      H      0.600940000000     0.939000000000     0.492010000000     0.20015    
H89      H      0.623380000000     0.051360000000     0.402210000000     0.134888   
H90      H      0.553910000000     0.080720000000     0.371810000000     0.193993   
H91      H      0.410950000000     0.056430000000     0.413970000000     0.16245    
H92      H      0.333870000000     0.976860000000     0.443570000000     0.202962   
H93      H      0.635720000000     0.966470000000     0.459940000000     0.213416   
H94      H      0.513070000000     0.091860000000     0.356150000000     0.224942   
H95      H      0.355670000000     0.012120000000     0.472900000000     0.207377   
H96      H      0.453430000000     0.864510000000     0.594510000000     0.20551    
H97      H      0.427450000000     0.461560000000     0.041150000000     0.204295   
H98      H      0.429710000000     0.451020000000     0.899600000000     0.193513   
H99      H      0.567370000000     0.581580000000     0.960480000000     0.198755   
H100     H      0.552150000000     0.430180000000     0.999350000000     0.207987   
H101     H      0.345680000000     0.443780000000     0.904730000000     0.134631   
H102     H      0.429020000000     0.550640000000     0.876430000000     0.210497   
H103     H      0.586740000000     0.589540000000     0.887690000000     0.132189   
H104     H      0.669010000000     0.580770000000     0.945780000000     0.20179    
H105     H      0.641510000000     0.511100000000     0.042960000000     0.160433   
H106     H      0.569260000000     0.443660000000     0.082760000000     0.227758   
H107     H      0.397090000000     0.374710000000     0.055310000000     0.132947   
H108     H      0.316260000000     0.384220000000     0.002400000000     0.198295   
H109     H      0.688430000000     0.564540000000     0.982740000000     0.226157   
H110     H      0.531520000000     0.393880000000     0.088900000000     0.219543   
H111     H      0.299310000000     0.407320000000     0.968800000000     0.199504   
H112     H      0.430720000000     0.516690000000     0.853140000000     0.201425   
H113     H      0.431390000000     0.433540000000     0.549560000000     0.20771    
H114     H      0.404430000000     0.442200000000     0.406190000000     0.195034   
H115     H      0.525800000000     0.581670000000     0.468010000000     0.200097   
H116     H      0.566150000000     0.457490000000     0.472400000000     0.207593   
H117     H      0.330800000000     0.452140000000     0.453130000000     0.146327   
H118     H      0.364620000000     0.488350000000     0.388210000000     0.199037   
H119     H      0.533190000000     0.597370000000     0.393030000000     0.131461   
H120     H      0.619980000000     0.616080000000     0.425000000000     0.197115   
H121     H      0.659410000000     0.554080000000     0.500590000000     0.142353   
H122     H      0.601390000000     0.468380000000     0.554850000000     0.208033   
H123     H      0.437490000000     0.350160000000     0.544900000000     0.136603   
H124     H      0.355210000000     0.340160000000     0.523420000000     0.196706   
H125     H      0.658650000000     0.615090000000     0.455360000000     0.199062   
H126     H      0.579470000000     0.417490000000     0.562420000000     0.210233   
H127     H      0.309860000000     0.343740000000     0.506260000000     0.209531   
H128     H      0.386250000000     0.539190000000     0.380480000000     0.231941   
H129     H      0.481030000000     0.517710000000     0.639250000000     0.0286807  
H130     H      0.544180000000     0.533770000000     0.810720000000     0.0271855  
H131     H      0.530610000000     0.424310000000     0.706000000000     0.0555736  
H132     H      0.546040000000     0.534480000000     0.748490000000     0.0639787  
H133     H      0.486310000000     0.514350000000     0.702440000000     0.0509576  
H134     H      0.483840000000     0.402570000000     0.757920000000     0.11589    
H135     H      0.524090000000     0.427590000000     0.642350000000     0.0316943  
H136     H      0.459260000000     0.428070000000     0.309560000000     0.0303269  
H137     H      0.463560000000     0.542710000000     0.123160000000     0.0216907  
H138     H      0.485510000000     0.558320000000     0.242950000000     0.0535533  
H139     H      0.454050000000     0.540430000000     0.185290000000     0.063811   
H140     H      0.465600000000     0.435130000000     0.247130000000     0.0567502  
H141     H      0.523740000000     0.469820000000     0.208760000000     0.118862   
H142     H      0.476330000000     0.549300000000     0.305670000000     0.0342781  
H143     H      0.377050000000     0.778710000000     0.443430000000     0.0296923  
H144     H      0.418550000000     0.598670000000     0.536260000000     0.0241766  
H145     H      0.443510000000     0.723270000000     0.540690000000     0.0502972  
H146     H      0.400890000000     0.652040000000     0.542320000000     0.0608591  
H147     H      0.362950000000     0.709220000000     0.443190000000     0.0536259  
H148     H      0.409210000000     0.683390000000     0.430380000000     0.117033   
H149     H      0.454710000000     0.791680000000     0.541070000000     0.0275482  
H150     H      0.528970000000     0.324240000000     0.524210000000     0.0272802  
H151     H      0.578280000000     0.172880000000     0.506650000000     0.0223924  
H152     H      0.553000000000     0.297510000000     0.408010000000     0.0536801  
H153     H      0.588850000000     0.241020000000     0.507820000000     0.0621165  
H154     H      0.541240000000     0.266920000000     0.519930000000     0.0512832  
H155     H      0.507790000000     0.225900000000     0.410690000000     0.115466   
H156     H      0.538550000000     0.353260000000     0.412930000000     0.0316032  
H157     H      0.534260000000     0.938290000000     0.645500000000     0.0268151  
H158     H      0.481800000000     0.015470000000     0.799560000000     0.0234991  
H159     H      0.551550000000     0.061640000000     0.692760000000     0.0519089  
H160     H      0.490340000000     0.018560000000     0.737720000000     0.0626131  
H161     H      0.540170000000     0.941500000000     0.708820000000     0.055132   
H162     H      0.594000000000     0.984080000000     0.761430000000     0.115967   
H163     H      0.546370000000     0.058080000000     0.629760000000     0.0290183  
H164     H      0.438850000000     0.017970000000     0.301940000000     0.0327152  
H165     H      0.396180000000     0.980110000000     0.122190000000     0.0283807  
H166     H      0.419690000000     0.894460000000     0.253720000000     0.0561476  
H167     H      0.383840000000     0.975700000000     0.184310000000     0.0646916  
H168     H      0.436590000000     0.016610000000     0.238700000000     0.0550906  
H169     H      0.485120000000     0.938750000000     0.211200000000     0.11702    
H170     H      0.421120000000     0.896170000000     0.316860000000     0.0319987  
H171     H      0.520670000000     0.661690000000     0.886480000000     0.0307792  
H172     H      0.468250000000     0.819160000000     0.902620000000     0.0179097  
H173     H      0.544830000000     0.742460000000     0.986200000000     0.0552875  
H174     H      0.473710000000     0.757420000000     0.901820000000     0.0623785  
H175     H      0.533360000000     0.731830000000     0.874970000000     0.053618   
H176     H      0.610710000000     0.820270000000     0.944140000000     0.113279   
H177     H      0.529550000000     0.671950000000     0.997090000000     0.0308657  
H178     H      0.468260000000     0.302440000000     0.063180000000     0.0285056  
H179     H      0.519210000000     0.142130000000     0.048680000000     0.0221915  
H180     H      0.448420000000     0.224170000000     0.962650000000     0.0571282  
H181     H      0.516800000000     0.205540000000     0.048160000000     0.0614946  
H182     H      0.457430000000     0.232770000000     0.074070000000     0.0540219  
H183     H      0.381110000000     0.147010000000     0.002810000000     0.118689   
H184     H      0.461810000000     0.294130000000     0.952410000000     0.0363127  
H185     H      0.703130000000     0.090810000000     0.475250000000     0.0340689  
H186     H      0.774670000000     0.321750000000     0.431830000000     0.0190533  
H187     H      0.715370000000     0.217300000000     0.511000000000     0.0495812  
H188     H      0.723410000000     0.253960000000     0.455870000000     0.0620604  
H189     H      0.762390000000     0.155400000000     0.453090000000     0.0532415  
H190     H      0.825020000000     0.217990000000     0.451180000000     0.111412   
H191     H      0.653540000000     0.151450000000     0.530270000000     0.028934   
H192     H      0.262250000000     0.857340000000     0.479080000000     0.0332669  
H193     H      0.180790000000     0.623410000000     0.521910000000     0.0169982  
H194     H      0.250260000000     0.729790000000     0.446120000000     0.049902   
H195     H      0.236730000000     0.691280000000     0.501360000000     0.0617219  
H196     H      0.203060000000     0.793220000000     0.501920000000     0.0539045  
H197     H      0.138290000000     0.732320000000     0.499330000000     0.111819   
H198     H      0.311880000000     0.795440000000     0.425700000000     0.0289013  
H199     H      0.617400000000     0.440100000000     0.409800000000     0.0289457  
H200     H      0.872430000000     0.573580000000     0.469260000000     0.0260963  
H201     H      0.736360000000     0.577610000000     0.440040000000     0.0481851  
H202     H      0.806690000000     0.575810000000     0.439430000000     0.0625617  
H203     H      0.689140000000     0.448540000000     0.435410000000     0.0513261  
H204     H      0.720710000000     0.459990000000     0.495060000000     0.113816   
H205     H      0.664630000000     0.568290000000     0.412690000000     0.0194546  
H206     H      0.344950000000     0.527690000000     0.527290000000     0.0298679  
H207     H      0.084560000000     0.390090000000     0.470580000000     0.0176311  
H208     H      0.214450000000     0.391950000000     0.507590000000     0.0524756  
H209     H      0.149940000000     0.394220000000     0.504870000000     0.0614636  
H210     H      0.273770000000     0.523780000000     0.504580000000     0.0511226  
H211     H      0.231820000000     0.513500000000     0.451890000000     0.112843   
H212     H      0.284080000000     0.396990000000     0.532620000000     0.0248163  
H213     H      0.985420000000     0.550030000000     0.804000000000     0.0320247  
H214     H      0.020970000000     0.466380000000     0.639250000000     0.0156478  
H215     H      0.970340000000     0.434930000000     0.744250000000     0.0525168  
H216     H      0.021950000000     0.467510000000     0.701470000000     0.063662   
H217     H      0.989010000000     0.557690000000     0.740680000000     0.057058   
H218     H      0.952240000000     0.538490000000     0.685090000000     0.118068   
H219     H      0.969910000000     0.429430000000     0.807100000000     0.0315037  
H220     H      0.006500000000     0.412740000000     0.323100000000     0.0410194  
H221     H      0.030330000000     0.533290000000     0.135540000000     0.0298448  
H222     H      0.969630000000     0.501600000000     0.236040000000     0.0538625  
H223     H      0.025940000000     0.528760000000     0.197950000000     0.0685062  
H224     H      0.020170000000     0.415580000000     0.261790000000     0.0569665  
H225     H      0.993210000000     0.401610000000     0.204090000000     0.115666   
H226     H      0.959970000000     0.500360000000     0.296990000000     0.023359   
H227     H      0.656100000000     0.166840000000     0.948370000000     0.0245731  
H228     H      0.815710000000     0.338890000000     0.886730000000     0.01627    
H229     H      0.767690000000     0.159580000000     0.882480000000     0.0547874  
H230     H      0.752940000000     0.270850000000     0.880820000000     0.0621995  
H231     H      0.723610000000     0.227820000000     0.934530000000     0.0496438  
H232     H      0.841950000000     0.220010000000     0.911070000000     0.111098   
H233     H      0.697600000000     0.096370000000     0.897900000000     0.0386161  
H234     H      0.290790000000     0.861170000000     0.058990000000     0.0306153  
H235     H      0.181030000000     0.627270000000     0.045940000000     0.0153809  
H236     H      0.240720000000     0.743810000000     0.988190000000     0.0509631  
H237     H      0.238800000000     0.697900000000     0.048930000000     0.0618565  
H238     H      0.223290000000     0.795800000000     0.075140000000     0.0551236  
H239     H      0.136380000000     0.734230000000     0.042390000000     0.113566   
H240     H      0.306430000000     0.807400000000     0.973360000000     0.0249968  
H241     H      0.679980000000     0.515670000000     0.930170000000     0.0225969  
H242     H      0.798630000000     0.396740000000     0.031880000000     0.0179183  
H243     H      0.664740000000     0.394840000000     0.007190000000     0.0496441  
H244     H      0.729110000000     0.393110000000     0.009040000000     0.0613959  
H245     H      0.746730000000     0.518250000000     0.961240000000     0.0519758  
H246     H      0.788670000000     0.524110000000     0.013050000000     0.115434   
H247     H      0.599760000000     0.392700000000     0.973580000000     0.025688   
H248     H      0.387980000000     0.579660000000     0.968270000000     0.0297023  
H249     H      0.131930000000     0.442460000000     0.909610000000     0.0215137  
H250     H      0.236660000000     0.464540000000     0.992970000000     0.0469023  
H251     H      0.203580000000     0.451500000000     0.935520000000     0.0581446  
H252     H      0.322170000000     0.580280000000     0.936680000000     0.0513409  
H253     H      0.252920000000     0.581750000000     0.932800000000     0.108867   
H254     H      0.302640000000     0.464190000000     0.022300000000     0.0237819  
H255     H      0.567810000000     0.664460000000     0.537620000000     0.0274304  
H256     H      0.806280000000     0.798130000000     0.481890000000     0.0296446  
H257     H      0.725470000000     0.692240000000     0.556030000000     0.0531017  
H258     H      0.739720000000     0.736280000000     0.496830000000     0.0619662  
H259     H      0.628850000000     0.735990000000     0.538590000000     0.0554475  
H260     H      0.710830000000     0.797410000000     0.569650000000     0.115863   
H261     H      0.664880000000     0.622730000000     0.552640000000     0.020336   
H262     H      0.293470000000     0.325640000000     0.406870000000     0.0276909  
H263     H      0.178230000000     0.098460000000     0.381410000000     0.0315133  
H264     H      0.341980000000     0.222190000000     0.404090000000     0.0557095  
H265     H      0.246810000000     0.163240000000     0.366760000000     0.0676773  
H266     H      0.237100000000     0.254540000000     0.404010000000     0.0569985  
H267     H      0.245220000000     0.204880000000     0.465650000000     0.118569   
H268     H      0.398600000000     0.295170000000     0.405750000000     0.0305788  
H269     H      0.545740000000     0.866710000000     0.421040000000     0.0253643  
H270     H      0.800780000000     0.969230000000     0.373250000000     0.0237474  
H271     H      0.677560000000     0.986070000000     0.367920000000     0.054699   
H272     H      0.723440000000     0.952180000000     0.356180000000     0.064187   
H273     H      0.619010000000     0.868800000000     0.428360000000     0.0551727  
H274     H      0.690640000000     0.920170000000     0.464650000000     0.113147   
H275     H      0.604710000000     0.983290000000     0.361770000000     0.0265444  
H276     H      0.422380000000     0.097020000000     0.510130000000     0.0302329  
H277     H      0.172230000000     0.017820000000     0.564170000000     0.0249685  
H278     H      0.293630000000     0.004290000000     0.582510000000     0.0536924  
H279     H      0.250680000000     0.041390000000     0.581620000000     0.0645695  
H280     H      0.353290000000     0.102520000000     0.501270000000     0.0551859  
H281     H      0.278750000000     0.047970000000     0.473780000000     0.112335   
H282     H      0.361920000000     0.999140000000     0.589650000000     0.0246284  
H283     H      0.007900000000     0.663850000000     0.492130000000     0.07416    
H284     H      0.083570000000     0.873420000000     0.440910000000     0.0258245  
H285     H      0.006950000000     0.722440000000     0.370060000000     0.0568024  
H286     H      0.085190000000     0.808680000000     0.444110000000     0.0642998  
H287     H      0.021510000000     0.733840000000     0.481350000000     0.0590556  
H288     H      0.953290000000     0.752870000000     0.391660000000     0.116718   
H289     H      0.996050000000     0.652880000000     0.381460000000     0.0298796  
H290     H      0.945810000000     0.294790000000     0.558260000000     0.0303296  
H291     H      0.872040000000     0.076900000000     0.501350000000     0.0315465  
H292     H      0.939390000000     0.220320000000     0.458940000000     0.0603035  
H293     H      0.865570000000     0.139370000000     0.500380000000     0.064974   
H294     H      0.934250000000     0.224920000000     0.569480000000     0.0544183  
H295     H      0.002090000000     0.202780000000     0.543520000000     0.119456   
H296     H      0.953720000000     0.290530000000     0.448590000000     0.0670449  
H297     H      0.992630000000     0.943110000000     0.643710000000     0.0257275  
H298     H      0.939030000000     0.016630000000     0.798390000000     0.0257838  
H299     H      0.878080000000     0.971940000000     0.681300000000     0.0582716  
H300     H      0.933260000000     0.014680000000     0.735070000000     0.0666212  
H301     H      0.982890000000     0.938840000000     0.705570000000     0.0606086  
H302     H      0.918410000000     0.893370000000     0.748840000000     0.119846   
H303     H      0.887800000000     0.975130000000     0.618630000000     0.0441015  
H304     H      0.969000000000     0.005690000000     0.294300000000     0.0293138  
H305     H      0.028560000000     0.933930000000     0.141580000000     0.023476   
H306     H      0.086810000000     0.979760000000     0.258940000000     0.0549999  
H307     H      0.030670000000     0.935030000000     0.204800000000     0.0684826  
H308     H      0.979660000000     0.009430000000     0.232570000000     0.0583404  
H309     H      0.047780000000     0.057110000000     0.190360000000     0.120213   
H310     H      0.076310000000     0.977270000000     0.321290000000     0.0368987  
H311     H      0.822400000000     0.797450000000     0.921510000000     0.0376463  
H312     H      0.595720000000     0.668910000000     0.019540000000     0.0250003  
H313     H      0.708890000000     0.798360000000     0.990290000000     0.0555507  
H314     H      0.646370000000     0.734980000000     0.991690000000     0.0634038  
H315     H      0.762270000000     0.732620000000     0.944820000000     0.054073   
H316     H      0.751170000000     0.700730000000     0.003020000000     0.118494   
H317     H      0.767010000000     0.861620000000     0.964670000000     0.0387857  
H318     H      0.289960000000     0.327590000000     0.936560000000     0.0219625  
H319     H      0.160510000000     0.151720000000     0.027730000000     0.06694    
H320     H      0.338610000000     0.222640000000     0.958500000000     0.0556399  
H321     H      0.223230000000     0.218350000000     0.011570000000     0.0719938  
H322     H      0.236250000000     0.258950000000     0.957300000000     0.0553686  
H323     H      0.274060000000     0.160440000000     0.952860000000     0.120005   
H324     H      0.390530000000     0.291410000000     0.935280000000     0.0354938  
H325     H      0.673090000000     0.992240000000     0.071470000000     0.0342914  
H326     H      0.926220000000     0.086900000000     0.021420000000     0.0222793  
H327     H      0.781070000000     0.035570000000     0.979110000000     0.0507577  
H328     H      0.854160000000     0.086920000000     0.014430000000     0.064581   
H329     H      0.750240000000     0.007850000000     0.088190000000     0.0587726  
H330     H      0.793740000000     0.971510000000     0.077370000000     0.12077    
H331     H      0.703700000000     0.019430000000     0.962970000000     0.0427965  
H332     H      0.273860000000     0.933740000000     0.985260000000     0.0400243  
H333     H      0.050700000000     0.857880000000     0.933540000000     0.0250296  
H334     H      0.221560000000     0.912880000000     0.860870000000     0.0557089  
H335     H      0.120320000000     0.853440000000     0.942510000000     0.0651569  
H336     H      0.194660000000     0.909450000000     0.968580000000     0.0540105  
H337     H      0.177090000000     0.948370000000     0.858360000000     0.121355   
H338     H      0.300410000000     0.937500000000     0.878080000000     0.0335213  
H339     H      0.974100000000     0.626840000000     0.032580000000     0.0704271  
H340     H      0.925320000000     0.790340000000     0.926790000000     0.0338719  
H341     H      0.882910000000     0.654690000000     0.935850000000     0.0517601  
H342     H      0.916380000000     0.723360000000     0.928020000000     0.0656886  
H343     H      0.959410000000     0.682220000000     0.035630000000     0.0681004  
H344     H      0.918380000000     0.713060000000     0.041460000000     0.121917   
H345     H      0.902260000000     0.601450000000     0.932230000000     0.0258876  
H346     H      0.053160000000     0.355570000000     0.907590000000     0.0375413  
H347     H      0.015440000000     0.160850000000     0.903700000000     0.0183102  
H348     H      0.058730000000     0.269390000000     0.013770000000     0.0603806  
H349     H      0.024860000000     0.228590000000     0.904030000000     0.0678184  
H350     H      0.068120000000     0.300300000000     0.901730000000     0.0530343  
H351     H      0.106530000000     0.244640000000     0.000950000000     0.115231   
H352     H      0.045970000000     0.326130000000     0.018940000000     0.0370996  
N1       N      0.511720000000     0.467980000000     0.820670000000    -0.243171   
N2       N      0.502300000000     0.473060000000     0.635930000000    -0.190894   
N3       N      0.495670000000     0.505250000000     0.130430000000    -0.244625   
N4       N      0.468510000000     0.488510000000     0.312430000000    -0.191078   
N5       N      0.424480000000     0.610260000000     0.480210000000    -0.244224   
N6       N      0.418780000000     0.790920000000     0.491390000000    -0.191917   
N7       N      0.536290000000     0.159730000000     0.458740000000    -0.244364   
N8       N      0.531260000000     0.342070000000     0.468790000000    -0.192      
N9       N      0.532660000000     0.998020000000     0.816970000000    -0.238322   
N10      N      0.538810000000     0.997510000000     0.632640000000    -0.188405   
N11      N      0.448300000000     0.963100000000     0.130890000000    -0.237965   
N12      N      0.431130000000     0.957520000000     0.314390000000    -0.187037   
N13      N      0.535750000000     0.855390000000     0.923950000000    -0.237137   
N14      N      0.524160000000     0.661190000000     0.942680000000    -0.185652   
N15      N      0.452020000000     0.107690000000     0.025880000000    -0.237764   
N16      N      0.465770000000     0.303860000000     0.006960000000    -0.18551    
N17      N      0.829510000000     0.309480000000     0.429530000000    -0.245185   
N18      N      0.671770000000     0.116780000000     0.501630000000    -0.191996   
N19      N      0.127300000000     0.638310000000     0.520290000000    -0.244371   
N20      N      0.293310000000     0.830870000000     0.452960000000    -0.192141   
N21      N      0.834210000000     0.514580000000     0.496720000000    -0.244844   
N22      N      0.634810000000     0.503100000000     0.411560000000    -0.194466   
N23      N      0.119600000000     0.449970000000     0.443630000000    -0.248523   
N24      N      0.320460000000     0.462890000000     0.529840000000    -0.192943   
N25      N      0.986250000000     0.501410000000     0.625950000000    -0.244192   
N26      N      0.978580000000     0.489610000000     0.810310000000    -0.191403   
N27      N      0.014850000000     0.470790000000     0.133670000000    -0.244166   
N28      N      0.983730000000     0.457330000000     0.314600000000    -0.190308   
N29      N      0.864580000000     0.319010000000     0.901990000000    -0.241437   
N30      N      0.670880000000     0.126530000000     0.923730000000    -0.186631   
N31      N      0.125660000000     0.639760000000     0.041540000000    -0.241293   
N32      N      0.304880000000     0.838560000000     0.016130000000    -0.188893   
N33      N      0.835670000000     0.462540000000     0.031710000000    -0.243603   
N34      N      0.635000000000     0.454420000000     0.950230000000    -0.195448   
N35      N      0.150110000000     0.506080000000     0.907810000000    -0.245782   
N36      N      0.349990000000     0.520950000000     0.996130000000    -0.192382   
N37      N      0.799630000000     0.834630000000     0.517550000000    -0.234066   
N38      N      0.612370000000     0.638990000000     0.543370000000    -0.190036   
N39      N      0.171440000000     0.116200000000     0.430330000000    -0.237631   
N40      N      0.350080000000     0.315170000000     0.408170000000    -0.188887   
N41      N      0.790980000000     0.955190000000     0.428700000000    -0.237436   
N42      N      0.570640000000     0.925640000000     0.392210000000    -0.194973   
N43      N      0.179330000000     0.018280000000     0.509080000000    -0.237595   
N44      N      0.395870000000     0.046470000000     0.549300000000    -0.193271   
N45      N      0.016960000000     0.849730000000     0.416390000000    -0.238698   
N46      N      0.001500000000     0.652890000000     0.437680000000    -0.180891   
N47      N      0.941020000000     0.104930000000     0.520840000000    -0.238171   
N48      N      0.950150000000     0.298140000000     0.502480000000    -0.182301   
N49      N      0.933080000000     0.956720000000     0.810420000000    -0.236824   
N50      N      0.941190000000     0.959790000000     0.626290000000    -0.186656   
N51      N      0.036410000000     0.994480000000     0.129200000000    -0.237616   
N52      N      0.021740000000     0.991030000000     0.312660000000    -0.185557   
N53      N      0.642090000000     0.645430000000     0.022700000000    -0.2449     
N54      N      0.800920000000     0.834200000000     0.943750000000    -0.18971    
N55      N      0.179710000000     0.118810000000     0.997770000000    -0.239435   
N56      N      0.344840000000     0.314870000000     0.936630000000    -0.191833   
N57      N      0.900320000000     0.028520000000     0.051330000000    -0.246506   
N58      N      0.682270000000     0.004290000000     0.015920000000    -0.184705   
N59      N      0.075760000000     0.906970000000     0.892990000000    -0.243891   
N60      N      0.293510000000     0.938400000000     0.932910000000    -0.185998   
N61      N      0.931230000000     0.792470000000     0.983000000000    -0.242679   
N62      N      0.940680000000     0.611010000000     0.981570000000    -0.183521   
N63      N      0.052120000000     0.162330000000     0.953210000000    -0.244806   
N64      N      0.047120000000     0.344190000000     0.963590000000    -0.188658   
O1       O      0.131700000000     0.058320000000     0.975430000000    -0.349648   
O2       O      0.106190000000     0.082040000000     0.013930000000    -0.35091    
O3       O      0.954670000000     0.995750000000     0.857620000000    -0.371409   
O4       O      0.940010000000     0.929520000000     0.866380000000    -0.333857   
O5       O      0.018850000000     0.100650000000     0.929070000000    -0.384253   
O6       O      0.044430000000     0.104940000000     0.986320000000    -0.332114   
O7       O      0.068860000000     0.961560000000     0.901330000000    -0.362521   
O8       O      0.009230000000     0.899230000000     0.910780000000    -0.346948   
O9       O      0.138310000000     0.035620000000     0.915280000000    -0.279427   
O10      O      0.117370000000     0.963940000000     0.980520000000    -0.522617   
O11      O      0.032930000000     0.074910000000     0.866800000000    -0.52199    
O12      O      0.925740000000     0.048170000000     0.891260000000    -0.349371   
O13      O      0.047540000000     0.042960000000     0.952030000000    -0.497223   
O14      O      0.012960000000     0.984810000000     0.911130000000    -0.640437   
O15      O      0.960780000000     0.853110000000     0.008800000000    -0.333343   
O16      O      0.938550000000     0.850110000000     0.950830000000    -0.370324   
O17      O      0.927660000000     0.985940000000     0.043880000000    -0.322116   
O18      O      0.973160000000     0.052090000000     0.035710000000    -0.348469   
O19      O      0.847190000000     0.897200000000     0.961790000000    -0.382897   
O20      O      0.874050000000     0.870640000000     0.926920000000    -0.357438   
O21      O      0.016370000000     0.956070000000     0.081810000000    -0.373217   
O22      O      0.037160000000     0.023770000000     0.072790000000    -0.323618   
O23      O      0.946460000000     0.875870000000     0.071250000000    -0.513448   
O24      O      0.055030000000     0.908900000000     0.046450000000    -0.334729   
O25      O      0.836970000000     0.922440000000     0.020310000000    -0.320649   
O26      O      0.863420000000     0.995390000000     0.966540000000    -0.541426   
O27      O      0.930750000000     0.911160000000     0.986650000000    -0.632927   
O28      O      0.966080000000     0.969870000000     0.027130000000    -0.465058   
O29      O      0.017470000000     0.929250000000     0.969090000000    -0.492656   
O30      O      0.961540000000     0.025520000000     0.969650000000    -0.633536   
O31      O      0.053580000000     0.989940000000     0.010300000000    -0.636547   
O32      O      0.925220000000     0.963860000000     0.928780000000    -0.49791    
O33      O      0.971750000000     0.876780000000     0.423700000000    -0.333678   
O34      O      0.046840000000     0.917860000000     0.427750000000    -0.365189   
O35      O      0.861340000000     0.971670000000     0.412840000000    -0.372585   
O36      O      0.848100000000     0.964850000000     0.470590000000    -0.322403   
O37      O      0.978720000000     0.988770000000     0.355370000000    -0.377746   
O38      O      0.043290000000     0.985720000000     0.371260000000    -0.362543   
O39      O      0.867430000000     0.861880000000     0.493290000000    -0.384846   
O40      O      0.851460000000     0.904280000000     0.518540000000    -0.304006   
O41      O      0.886120000000     0.830580000000     0.443870000000    -0.309108   
O42      O      0.958310000000     0.848580000000     0.510560000000    -0.530464   
O43      O      0.885730000000     0.938360000000     0.363270000000    -0.520123   
O44      O      0.939680000000     0.044250000000     0.372670000000    -0.344221   
O45      O      0.971080000000     0.940820000000     0.419850000000    -0.484889   
O46      O      0.906460000000     0.934990000000     0.453980000000    -0.633539   
O47      O      0.984480000000     0.963290000000     0.583350000000    -0.379963   
O48      O      0.920840000000     0.967940000000     0.567740000000    -0.354429   
O49      O      0.103780000000     0.090800000000     0.454270000000    -0.339165   
O50      O      0.114260000000     0.050500000000     0.421220000000    -0.347303   
O51      O      0.988550000000     0.086720000000     0.501890000000    -0.35159    
O52      O      0.916910000000     0.036910000000     0.512220000000    -0.351109   
O53      O      0.107630000000     0.997330000000     0.524590000000    -0.365226   
O54      O      0.119590000000     0.996210000000     0.467910000000    -0.32478    
O55      O      0.075420000000     0.011920000000     0.580670000000    -0.517626   
O56      O      0.030950000000     0.912110000000     0.562730000000    -0.356544   
O57      O      0.077530000000     0.119980000000     0.502870000000    -0.277882   
O58      O      0.022070000000     0.109530000000     0.422880000000    -0.529892   
O59      O      0.994600000000     0.015090000000     0.519190000000    -0.634249   
O60      O      0.058920000000     0.019750000000     0.484900000000    -0.490136   
O61      O      0.950330000000     0.929250000000     0.518990000000    -0.497495   
O62      O      0.015590000000     0.026530000000     0.419770000000    -0.630055   
O63      O      0.018730000000     0.934570000000     0.485290000000    -0.630267   
O64      O      0.948150000000     0.021110000000     0.454370000000    -0.494917   
O65      O      0.033920000000     0.383260000000     0.996920000000    -0.368951   
O66      O      0.025210000000     0.389670000000     0.937400000000    -0.359272   
O67      O      0.877780000000     0.431620000000     0.028050000000    -0.392851   
O68      O      0.913610000000     0.499200000000     0.033020000000    -0.318699   
O69      O      0.878530000000     0.369930000000     0.935060000000    -0.383476   
O70      O      0.937030000000     0.372450000000     0.909660000000    -0.335828   
O71      O      0.018900000000     0.447670000000     0.082600000000    -0.347999   
O72      O      0.004290000000     0.500800000000     0.080940000000    -0.382792   
O73      O      0.982140000000     0.367130000000     0.057750000000    -0.309494   
O74      O      0.093810000000     0.444990000000     0.048920000000    -0.528915   
O75      O      0.862400000000     0.353760000000     0.007520000000    -0.52296    
O76      O      0.836650000000     0.420400000000     0.952880000000    -0.353185   
O77      O      0.965040000000     0.405490000000     0.976740000000    -0.498759   
O78      O      0.960160000000     0.445510000000     0.025130000000    -0.637194   
O79      O      0.111780000000     0.588690000000     0.008430000000    -0.389563   
O80      O      0.053930000000     0.584570000000     0.035870000000    -0.331914   
O81      O      0.976900000000     0.513420000000     0.861670000000    -0.37341    
O82      O      0.986170000000     0.457350000000     0.862850000000    -0.379356   
O83      O      0.949190000000     0.568820000000     0.948450000000    -0.36841    
O84      O      0.971290000000     0.571590000000     0.006440000000    -0.341628   
O85      O      0.097630000000     0.527260000000     0.907760000000    -0.328266   
O86      O      0.073930000000     0.462320000000     0.900950000000    -0.363316   
O87      O      0.140880000000     0.605070000000     0.943020000000    -0.505596   
O88      O      0.153010000000     0.530540000000     0.987840000000    -0.358921   
O89      O      0.014640000000     0.594630000000     0.891790000000    -0.340309   
O90      O      0.902490000000     0.516650000000     0.889540000000    -0.525324   
O91      O      0.027730000000     0.552930000000     0.967240000000    -0.637699   
O92      O      0.031990000000     0.512630000000     0.919210000000    -0.473796   
O93      O      0.052100000000     0.504900000000     0.019650000000    -0.503131   
O94      O      0.939990000000     0.453930000000     0.924150000000    -0.636576   
O95      O      0.057440000000     0.465620000000     0.970600000000    -0.63335    
O96      O      0.935120000000     0.492490000000     0.973230000000    -0.499134   
O97      O      0.959630000000     0.357690000000     0.522120000000    -0.365618   
O98      O      0.963540000000     0.354450000000     0.464070000000    -0.338206   
O99      O      0.860480000000     0.469270000000     0.505100000000    -0.358159   
O100     O      0.910550000000     0.536130000000     0.501990000000    -0.35173    
O101     O      0.852000000000     0.373350000000     0.443890000000    -0.385631   
O102     O      0.901970000000     0.360740000000     0.421080000000    -0.334702   
O103     O      0.984510000000     0.465220000000     0.582250000000    -0.381847   
O104     O      0.976940000000     0.522270000000     0.568360000000    -0.335853   
O105     O      0.910700000000     0.379480000000     0.569010000000    -0.340096   
O106     O      0.026290000000     0.414820000000     0.571630000000    -0.526037   
O107     O      0.808710000000     0.394900000000     0.482140000000    -0.508179   
O108     O      0.844720000000     0.460580000000     0.415820000000    -0.357868   
O109     O      0.925570000000     0.405290000000     0.481040000000    -0.499358   
O110     O      0.929760000000     0.460660000000     0.517320000000    -0.631623   
O111     O      0.104140000000     0.574980000000     0.504150000000    -0.394118   
O112     O      0.052650000000     0.589610000000     0.521530000000    -0.32814    
O113     O      0.980890000000     0.491880000000     0.357730000000    -0.37795    
O114     O      0.980100000000     0.430910000000     0.371920000000    -0.367461   
O115     O      0.990980000000     0.592960000000     0.418110000000    -0.365583   
O116     O      0.992000000000     0.597930000000     0.476560000000    -0.336126   
O117     O      0.081010000000     0.484760000000     0.425910000000    -0.3298     
O118     O      0.043130000000     0.417530000000     0.430790000000    -0.365517   
O119     O      0.146140000000     0.559790000000     0.459060000000    -0.50873    
O120     O      0.114150000000     0.486780000000     0.517000000000    -0.36647    
O121     O      0.042100000000     0.576810000000     0.371910000000    -0.330344   
O122     O      0.924230000000     0.530610000000     0.369000000000    -0.524757   
O123     O      0.029560000000     0.546880000000     0.459230000000    -0.636295   
O124     O      0.025050000000     0.491240000000     0.423870000000    -0.465665   
O125     O      0.023820000000     0.497730000000     0.522480000000    -0.495901   
O126     O      0.930390000000     0.453990000000     0.417390000000    -0.627852   
O127     O      0.021320000000     0.440390000000     0.487590000000    -0.634945   
O128     O      0.933420000000     0.511540000000     0.453050000000    -0.502267   
O129     O      0.365490000000     0.960050000000     0.917920000000    -0.365574   
O130     O      0.352460000000     0.960340000000     0.974620000000    -0.349648   
O131     O      0.487320000000     0.873030000000     0.941940000000    -0.385486   
O132     O      0.558790000000     0.923460000000     0.932050000000    -0.31396    
O133     O      0.372420000000     0.866240000000     0.991690000000    -0.379552   
O134     O      0.358660000000     0.906440000000     0.022260000000    -0.356786   
O135     O      0.488960000000     0.994500000000     0.859740000000    -0.379107   
O136     O      0.553370000000     0.991430000000     0.875850000000    -0.329657   
O137     O      0.397710000000     0.944280000000     0.862510000000    -0.330191   
O138     O      0.442030000000     0.044690000000     0.879680000000    -0.53084    
O139     O      0.397870000000     0.840280000000     0.940340000000    -0.517712   
O140     O      0.455550000000     0.849920000000     0.020540000000    -0.349843   
O141     O      0.414650000000     0.938210000000     0.958290000000    -0.495198   
O142     O      0.480010000000     0.944010000000     0.924180000000    -0.633811   
O143     O      0.603110000000     0.097900000000     0.948280000000    -0.383596   
O144     O      0.622030000000     0.056150000000     0.925210000000    -0.348034   
O145     O      0.493070000000     0.968510000000     0.088070000000    -0.335172   
O146     O      0.428050000000     0.970610000000     0.072140000000    -0.369078   
O147     O      0.612020000000     0.988490000000     0.031250000000    -0.370922   
O148     O      0.626070000000     0.995540000000     0.973580000000    -0.351042   
O149     O      0.498610000000     0.082200000000     0.018320000000    -0.369266   
O150     O      0.423780000000     0.039330000000     0.015270000000    -0.329454   
O151     O      0.584690000000     0.127220000000     0.999340000000    -0.516085   
O152     O      0.511360000000     0.109200000000     0.931890000000    -0.356059   
O153     O      0.586870000000     0.023910000000     0.079910000000    -0.313765   
O154     O      0.534830000000     0.917190000000     0.071410000000    -0.520956   
O155     O      0.566470000000     0.024840000000     0.989480000000    -0.633186   
O156     O      0.500740000000     0.017870000000     0.023450000000    -0.489847   
O157     O      0.522610000000     0.029580000000     0.924380000000    -0.496145   
O158     O      0.458060000000     0.932370000000     0.023390000000    -0.630421   
O159     O      0.453070000000     0.022970000000     0.957740000000    -0.628832   
O160     O      0.526480000000     0.938970000000     0.989380000000    -0.487176   
O161     O      0.504530000000     0.097790000000     0.435030000000    -0.342371   
O162     O      0.535310000000     0.104170000000     0.490870000000    -0.375721   
O163     O      0.340880000000     0.893330000000     0.471440000000    -0.386699   
O164     O      0.364870000000     0.868320000000     0.432830000000    -0.36815    
O165     O      0.405090000000     0.992440000000     0.543260000000    -0.38911    
O166     O      0.462970000000     0.055070000000     0.531710000000    -0.353821   
O167     O      0.451580000000     0.995740000000     0.361780000000    -0.363906   
O168     O      0.431650000000     0.928110000000     0.370620000000    -0.367939   
O169     O      0.413570000000     0.041690000000     0.395490000000    -0.340764   
O170     O      0.523790000000     0.076660000000     0.372850000000    -0.519426   
O171     O      0.353660000000     0.988360000000     0.463880000000    -0.532087   
O172     O      0.333490000000     0.918950000000     0.529470000000    -0.326089   
O173     O      0.453600000000     0.023770000000     0.474650000000    -0.495358   
O174     O      0.416380000000     0.962080000000     0.433830000000    -0.632576   
O175     O      0.540910000000     0.966640000000     0.398400000000    -0.348584   
O176     O      0.497260000000     0.900420000000     0.407430000000    -0.359899   
O177     O      0.518390000000     0.958590000000     0.585510000000    -0.3749     
O178     O      0.531700000000     0.024540000000     0.576750000000    -0.375391   
O179     O      0.453640000000     0.853090000000     0.514770000000    -0.370379   
O180     O      0.426400000000     0.847870000000     0.457840000000    -0.369541   
O181     O      0.623930000000     0.055550000000     0.480790000000    -0.384554   
O182     O      0.598220000000     0.081360000000     0.517350000000    -0.368401   
O183     O      0.609370000000     0.959500000000     0.472310000000    -0.53819    
O184     O      0.631740000000     0.033910000000     0.419380000000    -0.340192   
O185     O      0.548710000000     0.907110000000     0.549950000000    -0.356734   
O186     O      0.442270000000     0.878940000000     0.577290000000    -0.522099   
O187     O      0.510090000000     0.928030000000     0.473040000000    -0.627125   
O188     O      0.547020000000     0.990240000000     0.513340000000    -0.501245   
O189     O      0.503590000000     0.982690000000     0.415580000000    -0.465351   
O190     O      0.459800000000     0.968920000000     0.532520000000    -0.635228   
O191     O      0.539720000000     0.042140000000     0.455760000000    -0.628924   
O192     O      0.424800000000     0.910640000000     0.491960000000    -0.493401   
O193     O      0.475210000000     0.363420000000     0.026720000000    -0.366492   
O194     O      0.478470000000     0.359970000000     0.968590000000    -0.353177   
O195     O      0.377290000000     0.476630000000     0.008320000000    -0.386554   
O196     O      0.426590000000     0.543420000000     0.003760000000    -0.356099   
O197     O      0.367410000000     0.379410000000     0.949050000000    -0.385392   
O198     O      0.417430000000     0.365540000000     0.927810000000    -0.356444   
O199     O      0.496200000000     0.469730000000     0.087030000000    -0.338964   
O200     O      0.490210000000     0.527570000000     0.072720000000    -0.383732   
O201     O      0.423640000000     0.383880000000     0.072200000000    -0.335292   
O202     O      0.539860000000     0.420890000000     0.077540000000    -0.519438   
O203     O      0.323240000000     0.404360000000     0.982450000000    -0.515311   
O204     O      0.363230000000     0.468660000000     0.917660000000    -0.353045   
O205     O      0.440660000000     0.411600000000     0.985090000000    -0.50081    
O206     O      0.444780000000     0.466830000000     0.021050000000    -0.626239   
O207     O      0.620300000000     0.581350000000     0.009260000000    -0.357771   
O208     O      0.568360000000     0.595740000000     0.026310000000    -0.370726   
O209     O      0.510790000000     0.502610000000     0.864610000000    -0.382769   
O210     O      0.495400000000     0.436450000000     0.876540000000    -0.338685   
O211     O      0.511860000000     0.600590000000     0.923210000000    -0.365783   
O212     O      0.510750000000     0.605150000000     0.981470000000    -0.356373   
O213     O      0.597310000000     0.490080000000     0.932560000000    -0.356434   
O214     O      0.558750000000     0.422810000000     0.936350000000    -0.357078   
O215     O      0.663420000000     0.563150000000     0.967340000000    -0.519507   
O216     O      0.627810000000     0.490770000000     0.025160000000    -0.363486   
O217     O      0.557840000000     0.585970000000     0.875970000000    -0.331718   
O218     O      0.441770000000     0.533520000000     0.872760000000    -0.525943   
O219     O      0.546620000000     0.552730000000     0.964870000000    -0.636275   
O220     O      0.542250000000     0.496940000000     0.929960000000    -0.466746   
O221     O      0.538630000000     0.503160000000     0.028130000000    -0.489149   
O222     O      0.447610000000     0.460930000000     0.921050000000    -0.626143   
O223     O      0.536240000000     0.445580000000     0.992990000000    -0.633951   
O224     O      0.450650000000     0.518610000000     0.956790000000    -0.491684   
O225     O      0.518040000000     0.381860000000     0.501220000000    -0.378778   
O226     O      0.509810000000     0.387530000000     0.441650000000    -0.372119   
O227     O      0.364040000000     0.432710000000     0.530160000000    -0.386138   
O228     O      0.398280000000     0.500390000000     0.533310000000    -0.35074    
O229     O      0.364370000000     0.367580000000     0.439680000000    -0.378607   
O230     O      0.422000000000     0.370580000000     0.412770000000    -0.361393   
O231     O      0.507300000000     0.451010000000     0.584710000000    -0.373318   
O232     O      0.486210000000     0.500000000000     0.583120000000    -0.383313   
O233     O      0.462440000000     0.367600000000     0.561120000000    -0.34393    
O234     O      0.576200000000     0.441070000000     0.553110000000    -0.526978   
O235     O      0.342220000000     0.355130000000     0.508960000000    -0.519532   
O236     O      0.324050000000     0.423470000000     0.452040000000    -0.354194   
O237     O      0.449360000000     0.404680000000     0.479550000000    -0.503886   
O238     O      0.444790000000     0.445660000000     0.527290000000    -0.63024    
O239     O      0.597620000000     0.587280000000     0.510930000000    -0.384637   
O240     O      0.539670000000     0.585370000000     0.536620000000    -0.364106   
O241     O      0.465260000000     0.512440000000     0.363270000000    -0.37167    
O242     O      0.472570000000     0.455240000000     0.365380000000    -0.37934    
O243     O      0.439010000000     0.571070000000     0.447870000000    -0.33615    
O244     O      0.451840000000     0.568970000000     0.507100000000    -0.37351    
O245     O      0.582480000000     0.524550000000     0.410690000000    -0.356469   
O246     O      0.558760000000     0.459560000000     0.404010000000    -0.35715    
O247     O      0.628230000000     0.602270000000     0.444980000000    -0.528131   
O248     O      0.636950000000     0.527140000000     0.492240000000    -0.365074   
O249     O      0.502030000000     0.593100000000     0.391630000000    -0.318735   
O250     O      0.389310000000     0.515760000000     0.390700000000    -0.527735   
O251     O      0.513770000000     0.552340000000     0.469020000000    -0.633963   
O252     O      0.518140000000     0.510860000000     0.421610000000    -0.474088   
O253     O      0.536520000000     0.504290000000     0.522070000000    -0.496698   
O254     O      0.425620000000     0.453040000000     0.425970000000    -0.633817   
O255     O      0.542250000000     0.463950000000     0.473670000000    -0.629358   
O256     O      0.421080000000     0.492830000000     0.474210000000    -0.499615   
Zr1      Zr     0.074520000000     0.995860000000     0.952130000000     1.40321    
Zr2      Zr     0.984300000000     0.030270000000     0.912420000000     1.38021    
Zr3      Zr     0.993790000000     0.923470000000     0.026170000000     1.38871    
Zr4      Zr     0.904290000000     0.958790000000     0.986780000000     1.3788     
Zr5      Zr     0.024990000000     0.036630000000     0.010040000000     1.40232    
Zr6      Zr     0.954880000000     0.917950000000     0.928920000000     1.38861    
Zr7      Zr     0.941240000000     0.893710000000     0.469420000000     1.38187    
Zr8      Zr     0.937740000000     0.983730000000     0.405690000000     1.38       
Zr9      Zr     0.027860000000     0.972130000000     0.533500000000     1.38746    
Zr10     Zr     0.025940000000     0.061960000000     0.469590000000     1.4042     
Zr11     Zr     0.049100000000     0.983180000000     0.435450000000     1.37314    
Zr12     Zr     0.916370000000     0.972240000000     0.503440000000     1.37856    
Zr13     Zr     0.020950000000     0.432470000000     0.023090000000     1.39876    
Zr14     Zr     0.905600000000     0.420570000000     0.977610000000     1.39079    
Zr15     Zr     0.087140000000     0.537660000000     0.966340000000     1.39224    
Zr16     Zr     0.971690000000     0.526440000000     0.921060000000     1.38383    
Zr17     Zr     0.000690000000     0.439690000000     0.923560000000     1.38851    
Zr18     Zr     0.990850000000     0.518400000000     0.019980000000     1.38839    
Zr19     Zr     0.972730000000     0.426440000000     0.532450000000     1.38253    
Zr20     Zr     0.884260000000     0.440700000000     0.464240000000     1.3879     
Zr21     Zr     0.071020000000     0.511470000000     0.476400000000     1.38356    
Zr22     Zr     0.981910000000     0.525440000000     0.408010000000     1.38329    
Zr23     Zr     0.973760000000     0.419540000000     0.435010000000     1.38232    
Zr24     Zr     0.980690000000     0.532320000000     0.505040000000     1.39095    
Zr25     Zr     0.445440000000     0.985840000000     0.909560000000     1.38308    
Zr26     Zr     0.449120000000     0.897210000000     0.973790000000     1.39187    
Zr27     Zr     0.530250000000     0.064880000000     0.973730000000     1.37856    
Zr28     Zr     0.535470000000     0.976140000000     0.037860000000     1.39943    
Zr29     Zr     0.422960000000     0.974430000000     0.007720000000     1.36645    
Zr30     Zr     0.557890000000     0.987710000000     0.940220000000     1.37569    
Zr31     Zr     0.475430000000     0.028530000000     0.417180000000     1.39432    
Zr32     Zr     0.397300000000     0.957290000000     0.492400000000     1.38913    
Zr33     Zr     0.566500000000     0.994880000000     0.454920000000     1.36838    
Zr34     Zr     0.488830000000     0.923820000000     0.530710000000     1.37672    
Zr35     Zr     0.517190000000     0.035930000000     0.514000000000     1.37331    
Zr36     Zr     0.445550000000     0.915840000000     0.433470000000     1.37259    
Zr37     Zr     0.486840000000     0.431850000000     0.037100000000     1.39503    
Zr38     Zr     0.400420000000     0.447800000000     0.967260000000     1.37872    
Zr39     Zr     0.587080000000     0.516640000000     0.983040000000     1.38314    
Zr40     Zr     0.500570000000     0.532260000000     0.912950000000     1.38186    
Zr41     Zr     0.489530000000     0.425330000000     0.939800000000     1.38297    
Zr42     Zr     0.496440000000     0.538540000000     0.009590000000     1.37154    
Zr43     Zr     0.505050000000     0.431830000000     0.525980000000     1.38885    
Zr44     Zr     0.390550000000     0.420820000000     0.479440000000     1.38691    
Zr45     Zr     0.572670000000     0.536060000000     0.469050000000     1.37112    
Zr46     Zr     0.458610000000     0.525780000000     0.422190000000     1.39648    
Zr47     Zr     0.485750000000     0.437800000000     0.426440000000     1.37852    
Zr48     Zr     0.475740000000     0.518700000000     0.521660000000     1.37539    


