data_structure

_audit_creation_method RASPA-1.0
_audit_creation_date 2023-6-4
_audit_author_name 'Poobodin Mano'

_cell_length_a    26.2449
_cell_length_b    28.7005
_cell_length_c    28.7639
_cell_angle_alpha 82.7349
_cell_angle_beta  96.3405
_cell_angle_gamma 119.441
_cell_volume      18687.5

_symmetry_cell_setting          triclinic
_symmetry_space_group_name_Hall 'P 1'
_symmetry_space_group_name_H-M  'P 1'
_symmetry_Int_Tables_number     1

_symmetry_equiv_pos_as_xyz 'x,y,z'

loop_
_atom_site_label
_atom_site_type_symbol
_atom_site_fract_x
_atom_site_fract_y
_atom_site_fract_z
_atom_site_charge
C1       C      0.173370000000     0.151820000000     0.990800000000     0.394399   
C2       C      0.913820000000     0.934410000000     0.834530000000     0.387767   
C3       C      0.994490000000     0.153110000000     0.967220000000     0.390407   
C4       C      0.086140000000     0.915930000000     0.906380000000     0.388864   
C5       C      0.992520000000     0.813480000000     0.015490000000     0.395337   
C6       C      0.905080000000     0.042400000000     0.086350000000     0.382046   
C7       C      0.814540000000     0.816320000000     0.994310000000     0.394387   
C8       C      0.079880000000     0.037570000000     0.145500000000     0.394183   
C9       C      0.026500000000     0.861690000000     0.425660000000     0.39114    
C10      C      0.785240000000     0.965540000000     0.434410000000     0.372761   
C11      C      0.027540000000     0.010810000000     0.319710000000     0.39373    
C12      C      0.787270000000     0.845540000000     0.519820000000     0.396235   
C13      C      0.923920000000     0.946380000000     0.641710000000     0.386644   
C14      C      0.159960000000     0.134220000000     0.424410000000     0.389279   
C15      C      0.939280000000     0.109740000000     0.550040000000     0.384448   
C16      C      0.168410000000     0.995690000000     0.526910000000     0.385334   
C17      C      0.032430000000     0.348240000000     0.973620000000     0.38942    
C18      C      0.810750000000     0.459020000000     0.043460000000     0.379092   
C19      C      0.873360000000     0.313330000000     0.928900000000     0.379151   
C20      C      0.998630000000     0.472470000000     0.154200000000     0.400296   
C21      C      0.106260000000     0.645850000000     0.066260000000     0.384451   
C22      C      0.961480000000     0.498950000000     0.817220000000     0.397904   
C23      C      0.923670000000     0.620440000000     0.999960000000     0.396924   
C24      C      0.146720000000     0.517740000000     0.908160000000     0.394912   
C25      C      0.968920000000     0.307000000000     0.542100000000     0.388078   
C26      C      0.829380000000     0.509310000000     0.481190000000     0.40218    
C27      C      0.864060000000     0.319380000000     0.436520000000     0.389612   
C28      C      0.968280000000     0.524910000000     0.635300000000     0.400833   
C29      C      0.114450000000     0.651210000000     0.554770000000     0.384963   
C30      C      0.044540000000     0.464950000000     0.349610000000     0.383361   
C31      C      0.023950000000     0.665440000000     0.437820000000     0.393153   
C32      C      0.152540000000     0.449280000000     0.501560000000     0.406688   
C33      C      0.300160000000     0.955440000000     0.936940000000     0.386399   
C34      C      0.545580000000     0.865940000000     0.951370000000     0.345726   
C35      C      0.302880000000     0.832150000000     0.047130000000     0.371355   
C36      C      0.554190000000     0.014140000000     0.832330000000     0.393487   
C37      C      0.676890000000     0.128880000000     0.945720000000     0.388567   
C38      C      0.435010000000     0.950190000000     0.152020000000     0.3862     
C39      C      0.684780000000     0.995190000000     0.041610000000     0.378177   
C40      C      0.432410000000     0.101890000000     0.028840000000     0.396184   
C41      C      0.506560000000     0.144490000000     0.448840000000     0.399961   
C42      C      0.317810000000     0.796770000000     0.506880000000     0.387713   
C43      C      0.385870000000     0.027390000000     0.572120000000     0.381691   
C44      C      0.389920000000     0.910890000000     0.331420000000     0.40149    
C45      C      0.566170000000     0.903050000000     0.393360000000     0.388479   
C46      C      0.557610000000     0.017780000000     0.640960000000     0.3825     
C47      C      0.459720000000     0.789760000000     0.511470000000     0.409      
C48      C      0.652740000000     0.135760000000     0.479040000000     0.391171   
C49      C      0.432310000000     0.293390000000     0.013410000000     0.391288   
C50      C      0.322860000000     0.518230000000     0.000480000000     0.395751   
C51      C      0.317850000000     0.325530000000     0.907760000000     0.39677    
C52      C      0.434420000000     0.488790000000     0.137190000000     0.396912   
C53      C      0.614770000000     0.627060000000     0.054420000000     0.377786   
C54      C      0.518830000000     0.470040000000     0.829210000000     0.398753   
C55      C      0.491910000000     0.655280000000     0.944490000000     0.401501   
C56      C      0.619980000000     0.436610000000     0.955890000000     0.401535   
C57      C      0.504070000000     0.318220000000     0.468660000000     0.412061   
C58      C      0.365930000000     0.514390000000     0.519550000000     0.368473   
C59      C      0.368580000000     0.317060000000     0.417480000000     0.398805   
C60      C      0.525260000000     0.475790000000     0.642350000000     0.409514   
C61      C      0.644510000000     0.640610000000     0.550910000000     0.393436   
C62      C      0.506860000000     0.498870000000     0.306030000000     0.404958   
C63      C      0.513630000000     0.653310000000     0.477900000000     0.394778   
C64      C      0.647550000000     0.492990000000     0.386860000000     0.388077   
C65      C      0.576630000000     0.524100000000     0.761490000000    -0.0157645  
C66      C      0.525220000000     0.422200000000     0.767130000000    -0.00354888 
C67      C      0.548760000000     0.523930000000     0.712470000000    -0.00350592 
C68      C      0.544680000000     0.432080000000     0.716520000000    -0.0230127  
C69      C      0.454230000000     0.539890000000     0.206080000000    -0.0106264  
C70      C      0.420590000000     0.442080000000     0.215450000000    -0.00298731 
C71      C      0.514670000000     0.550530000000     0.229090000000    -0.0170956  
C72      C      0.482800000000     0.453370000000     0.231490000000    -0.0207514  
C73      C      0.542690000000     0.731660000000     0.522560000000    -0.0103939  
C74      C      0.479560000000     0.716150000000     0.447830000000    -0.00612544 
C75      C      0.492640000000     0.726800000000     0.549810000000    -0.0152107  
C76      C      0.428750000000     0.702780000000     0.477450000000    -0.0204183  
C77      C      0.527850000000     0.247490000000     0.500980000000    -0.00937462 
C78      C      0.462530000000     0.236210000000     0.426850000000    -0.00845464 
C79      C      0.566280000000     0.235670000000     0.473650000000    -0.00944701 
C80      C      0.502480000000     0.224060000000     0.401940000000    -0.0146887  
C81      C      0.537770000000     0.050090000000     0.707750000000    -0.0137177  
C82      C      0.586370000000     0.991530000000     0.719220000000    -0.00622887 
C83      C      0.561960000000     0.068040000000     0.757120000000    -0.0116468  
C84      C      0.612610000000     0.013520000000     0.767270000000    -0.0222823  
C85      C      0.444420000000     0.911670000000     0.232170000000    -0.0101998  
C86      C      0.382500000000     0.958130000000     0.215270000000    -0.00822259 
C87      C      0.398410000000     0.869760000000     0.265280000000    -0.0151115  
C88      C      0.339990000000     0.916170000000     0.251080000000    -0.0156836  
C89      C      0.490540000000     0.724010000000     0.982850000000    -0.0045367  
C90      C      0.490170000000     0.733190000000     0.893760000000    -0.00537463 
C91      C      0.482930000000     0.772600000000     0.974520000000    -0.013189   
C92      C      0.525870000000     0.795990000000     0.895080000000    -0.0148559  
C93      C      0.396040000000     0.202960000000     0.058820000000    -0.014406   
C94      C      0.413730000000     0.216800000000     0.972300000000    -0.00999125 
C95      C      0.374260000000     0.143250000000     0.049890000000    -0.0122691  
C96      C      0.440000000000     0.180230000000     0.980080000000    -0.0210956  
C97      C      0.796020000000     0.262630000000     0.496220000000    -0.00655711 
C98      C      0.766390000000     0.257270000000     0.411530000000    -0.0052312  
C99      C      0.745840000000     0.205200000000     0.507230000000    -0.0189532  
C100     C      0.719120000000     0.199020000000     0.419880000000    -0.0208318  
C101     C      0.167970000000     0.734730000000     0.506700000000    -0.0171525  
C102     C      0.207540000000     0.721660000000     0.586300000000    -0.00517943 
C103     C      0.217110000000     0.731890000000     0.484230000000    -0.0151665  
C104     C      0.257140000000     0.719180000000     0.564850000000    -0.0162916  
C105     C      0.707800000000     0.450080000000     0.398790000000    -0.0195178  
C106     C      0.754080000000     0.547220000000     0.378910000000    -0.0104323  
C107     C      0.727550000000     0.459020000000     0.450330000000    -0.00534483 
C108     C      0.781560000000     0.558910000000     0.429620000000    -0.0147705  
C109     C      0.281290000000     0.496150000000     0.562600000000    -0.015392   
C110     C      0.285650000000     0.523830000000     0.477410000000    -0.00693287 
C111     C      0.228820000000     0.440470000000     0.551580000000    -0.0138331  
C112     C      0.240380000000     0.466530000000     0.465720000000    -0.0180851  
C113     C      0.989620000000     0.485570000000     0.743350000000    -0.00736921 
C114     C      0.921260000000     0.524450000000     0.741810000000    -0.0084401  
C115     C      0.026160000000     0.531830000000     0.708690000000    -0.0111993  
C116     C      0.956290000000     0.567030000000     0.702690000000    -0.0215019  
C117     C      0.051830000000     0.518030000000     0.273650000000    -0.0151702  
C118     C      0.004700000000     0.416230000000     0.278230000000    -0.00343956 
C119     C      0.010570000000     0.510260000000     0.229700000000    -0.00949674 
C120     C      0.019460000000     0.426200000000     0.226390000000    -0.0236743  
C121     C      0.819370000000     0.230970000000     0.883630000000    -0.0142503  
C122     C      0.833000000000     0.224350000000     0.969650000000    -0.00459018 
C123     C      0.751780000000     0.190180000000     0.889310000000    -0.0153026  
C124     C      0.768790000000     0.206880000000     0.975760000000    -0.0113589  
C125     C      0.201120000000     0.794950000000     0.074600000000    -0.0155701  
C126     C      0.249180000000     0.736440000000     0.076050000000    -0.00537888 
C127     C      0.140520000000     0.741870000000     0.070500000000    -0.016254   
C128     C      0.200670000000     0.701430000000     0.110360000000    -0.021868   
C129     C      0.702360000000     0.404380000000     0.028490000000    -0.0120531  
C130     C      0.758120000000     0.497740000000     0.988360000000    -0.00323339 
C131     C      0.668320000000     0.383760000000     0.981150000000    -0.0175627  
C132     C      0.724590000000     0.474030000000     0.941740000000    -0.0207746  
C133     C      0.217080000000     0.480450000000     0.982030000000    -0.00463945 
C134     C      0.284950000000     0.576360000000     0.955160000000    -0.00652871 
C135     C      0.196990000000     0.467460000000     0.930890000000    -0.0196121  
C136     C      0.256690000000     0.562930000000     0.904600000000    -0.022911   
C137     C      0.685390000000     0.729040000000     0.587450000000    -0.0158085  
C138     C      0.713890000000     0.721020000000     0.508230000000    -0.00284268 
C139     C      0.702460000000     0.789140000000     0.569270000000    -0.0157586  
C140     C      0.700650000000     0.765380000000     0.489770000000    -0.0183363  
C141     C      0.249380000000     0.183070000000     0.375960000000    -0.0149806  
C142     C      0.242480000000     0.215350000000     0.452310000000     0.00228124 
C143     C      0.308360000000     0.238720000000     0.371250000000    -0.0158535  
C144     C      0.305990000000     0.228190000000     0.458400000000    -0.023999   
C145     C      0.680700000000     0.906810000000     0.453960000000    -0.00990775 
C146     C      0.707160000000     0.959560000000     0.373860000000    -0.0112466  
C147     C      0.624690000000     0.862760000000     0.429840000000    -0.021845   
C148     C      0.651290000000     0.912720000000     0.353190000000    -0.0122128  
C149     C      0.296800000000     0.013200000000     0.608650000000    -0.00978206 
C150     C      0.331530000000     0.072980000000     0.536400000000    -0.00957108 
C151     C      0.237000000000     0.977900000000     0.583120000000    -0.0156072  
C152     C      0.276060000000     0.034050000000     0.508080000000    -0.0218614  
C153     C      0.005890000000     0.774070000000     0.460590000000    -0.00950948 
C154     C      0.081830000000     0.817960000000     0.398920000000    -0.00241021 
C155     C      0.038780000000     0.743860000000     0.474620000000    -0.00894876 
C156     C      0.064810000000     0.757930000000     0.390590000000    -0.0243016  
C157     C      0.882910000000     0.157740000000     0.548360000000    -0.0116728  
C158     C      0.971980000000     0.183370000000     0.601750000000    -0.00129402 
C159     C      0.912200000000     0.214350000000     0.522930000000    -0.0133714  
C160     C      0.999770000000     0.242000000000     0.579570000000    -0.0255944  
C161     C      0.865510000000     0.943970000000     0.705470000000    -0.0136221  
C162     C      0.936480000000     0.906730000000     0.720490000000    -0.00226126 
C163     C      0.884110000000     0.961590000000     0.755850000000    -0.0081411  
C164     C      0.906580000000     0.883950000000     0.767700000000    -0.0249403  
C165     C      0.062000000000     0.983380000000     0.256770000000    -0.0103471  
C166     C      0.034490000000     0.057620000000     0.240520000000    -0.003867   
C167     C      0.113660000000     0.016370000000     0.224990000000    -0.0148768  
C168     C      0.090690000000     0.090230000000     0.213780000000    -0.0244117  
C169     C      0.722430000000     0.679250000000     0.041400000000    -0.0135424  
C170     C      0.655980000000     0.720460000000     0.022510000000    -0.00737831 
C171     C      0.755230000000     0.716600000000     0.998360000000    -0.0148746  
C172     C      0.713900000000     0.773570000000     0.021200000000    -0.0226742  
C173     C      0.212300000000     0.249600000000     0.974700000000    -0.0119899  
C174     C      0.272280000000     0.207080000000     0.959970000000    -0.00813796 
C175     C      0.213470000000     0.268050000000     0.921580000000    -0.0116595  
C176     C      0.268750000000     0.224670000000     0.907460000000    -0.0148684  
C177     C      0.818840000000     0.031630000000     0.125100000000    -0.00562624 
C178     C      0.845590000000     0.079570000000     0.047190000000    -0.0121023  
C179     C      0.757300000000     0.990960000000     0.103810000000    -0.0193924  
C180     C      0.793450000000     0.031200000000     0.024580000000    -0.0231042  
C181     C      0.137030000000     0.864950000000     0.933470000000    -0.0132583  
C182     C      0.160610000000     0.920330000000     0.858810000000    -0.0026309  
C183     C      0.196890000000     0.903930000000     0.956240000000    -0.0143781  
C184     C      0.222030000000     0.961000000000     0.878460000000    -0.0215316  
C185     C      0.993450000000     0.745090000000     0.973460000000    -0.004959   
C186     C      0.974220000000     0.727810000000     0.058970000000    -0.00869681 
C187     C      0.930090000000     0.703000000000     0.961510000000    -0.0159552  
C188     C      0.911570000000     0.683890000000     0.045560000000    -0.0193956  
C189     C      0.985660000000     0.229790000000     0.923120000000    -0.0123228  
C190     C      0.994360000000     0.221470000000     0.010940000000    -0.00387515 
C191     C      0.039670000000     0.286900000000     0.924000000000    -0.0153753  
C192     C      0.052660000000     0.273130000000     0.009680000000    -0.0193891  
H1       H      0.021390000000     0.985600000000     0.878990000000     0.198523   
H2       H      0.920500000000     0.049900000000     0.992470000000     0.211944   
H3       H      0.917950000000     0.858750000000     0.041660000000     0.196523   
H4       H      0.126340000000     0.040950000000     0.052090000000     0.195661   
H5       H      0.901890000000     0.075450000000     0.845830000000     0.151239   
H6       H      0.795230000000     0.928540000000     0.951240000000     0.24419    
H7       H      0.830560000000     0.881170000000     0.108040000000     0.137008   
H8       H      0.943250000000     0.854110000000     0.136300000000     0.193843   
H9       H      0.132150000000     0.919710000000     0.065300000000     0.140228   
H10      H      0.195780000000     0.009960000000     0.017820000000     0.196824   
H11      H      0.137360000000     0.104000000000     0.877230000000     0.142781   
H12      H      0.031420000000     0.083030000000     0.825360000000     0.197725   
H13      H      0.008940000000     0.872060000000     0.164080000000     0.213821   
H14      H      0.224970000000     0.035610000000     0.965710000000     0.21834    
H15      H      0.052860000000     0.134250000000     0.858410000000     0.201575   
H16      H      0.841470000000     0.993090000000     0.947850000000     0.211271   
H17      H      0.842590000000     0.915610000000     0.444140000000     0.222632   
H18      H      0.045600000000     0.082710000000     0.394900000000     0.193915   
H19      H      0.995670000000     0.044890000000     0.579810000000     0.195713   
H20      H      0.037510000000     0.904930000000     0.505180000000     0.197536   
H21      H      0.970250000000     0.109280000000     0.343200000000     0.138263   
H22      H      0.007830000000     0.183280000000     0.451110000000     0.211729   
H23      H      0.138490000000     0.140410000000     0.552470000000     0.14775    
H24      H      0.098550000000     0.065910000000     0.624530000000     0.195892   
H25      H      0.995280000000     0.861860000000     0.599840000000     0.134557   
H26      H      0.902820000000     0.795370000000     0.551190000000     0.197862   
H27      H      0.857960000000     0.861130000000     0.382310000000     0.132942   
H28      H      0.838160000000     0.926560000000     0.329390000000     0.19807    
H29      H      0.112720000000     0.017940000000     0.651380000000     0.212395   
H30      H      0.883500000000     0.763830000000     0.501900000000     0.211024   
H31      H      0.864910000000     0.986510000000     0.298720000000     0.210158   
H32      H      0.050800000000     0.182430000000     0.412730000000     0.204547   
H33      H      0.906490000000     0.418670000000     0.083310000000     0.202897   
H34      H      0.885570000000     0.440270000000     0.890450000000     0.197261   
H35      H      0.030570000000     0.619540000000     0.983460000000     0.203556   
H36      H      0.091440000000     0.463670000000     0.986350000000     0.199198   
H37      H      0.776120000000     0.361250000000     0.912260000000     0.137412   
H38      H      0.859770000000     0.575100000000     0.866050000000     0.232913   
H39      H      0.033710000000     0.631690000000     0.858890000000     0.146245   
H40      H      0.134320000000     0.653520000000     0.904570000000     0.214162   
H41      H      0.169080000000     0.545750000000     0.052570000000     0.151063   
H42      H      0.133950000000     0.454630000000     0.080510000000     0.212827   
H43      H      0.918370000000     0.312980000000     0.067540000000     0.156551   
H44      H      0.780540000000     0.306860000000     0.045300000000     0.211967   
H45      H      0.163170000000     0.683590000000     0.954330000000     0.210635   
H46      H      0.094090000000     0.403590000000     0.118770000000     0.251838   
H47      H      0.739710000000     0.313140000000     0.998610000000     0.206271   
H48      H      0.832890000000     0.508730000000     0.865300000000     0.22132    
H49      H      0.878760000000     0.454510000000     0.553510000000     0.206759   
H50      H      0.944680000000     0.442450000000     0.381270000000     0.191546   
H51      H      0.086710000000     0.614700000000     0.474680000000     0.198341   
H52      H      0.061070000000     0.422170000000     0.553200000000     0.210058   
H53      H      0.836270000000     0.443790000000     0.357910000000     0.133031   
H54      H      0.949750000000     0.569600000000     0.324830000000     0.232449   
H55      H      0.138050000000     0.633470000000     0.377770000000     0.141608   
H56      H      0.196680000000     0.605080000000     0.457010000000     0.213308   
H57      H      0.119970000000     0.505190000000     0.623280000000     0.133376   
H58      H      0.036490000000     0.405010000000     0.653500000000     0.206513   
H59      H      0.836350000000     0.345160000000     0.576300000000     0.131103   
H60      H      0.754030000000     0.353920000000     0.477910000000     0.195529   
H61      H      0.232510000000     0.605910000000     0.509140000000     0.214648   
H62      H      0.969370000000     0.375660000000     0.673920000000     0.215105   
H63      H      0.752000000000     0.365880000000     0.419600000000     0.200021   
H64      H      0.943940000000     0.510220000000     0.317930000000     0.195621   
H65      H      0.479360000000     0.911810000000     0.898820000000     0.202547   
H66      H      0.423470000000     0.885710000000     0.081650000000     0.195751   
H67      H      0.631570000000     0.054640000000     0.028400000000     0.226561   
H68      H      0.428410000000     0.051590000000     0.959540000000     0.225617   
H69      H      0.422110000000     0.789080000000     0.066750000000     0.133876   
H70      H      0.543060000000     0.858220000000     0.098410000000     0.202619   
H71      H      0.586330000000     0.030140000000     0.158220000000     0.151905   
H72      H      0.616240000000     0.101520000000     0.093510000000     0.202838   
H73      H      0.594080000000     0.187140000000     0.944430000000     0.146703   
H74      H      0.454670000000     0.087010000000     0.846350000000     0.215937   
H75      H      0.349980000000     0.885670000000     0.873270000000     0.152773   
H76      H      0.409800000000     0.816200000000     0.898970000000     0.203068   
H77      H      0.571600000000     0.127190000000     0.095740000000     0.21001    
H78      H      0.412080000000     0.036140000000     0.813700000000     0.227865   
H79      H      0.345810000000     0.787190000000     0.924480000000     0.214991   
H80      H      0.528580000000     0.870810000000     0.149230000000     0.202502   
H81      H      0.344540000000     0.905670000000     0.425220000000     0.200006   
H82      H      0.454290000000     0.962180000000     0.598420000000     0.204859   
H83      H      0.554370000000     0.899700000000     0.484750000000     0.201443   
H84      H      0.551830000000     0.085750000000     0.434020000000     0.233215   
H85      H      0.258540000000     0.856580000000     0.565280000000     0.138657   
H86      H      0.480130000000     0.828680000000     0.642590000000     0.215626   
H87      H      0.628530000000     0.941180000000     0.606310000000     0.149077   
H88      H      0.669890000000     0.997180000000     0.524200000000     0.204479   
H89      H      0.689440000000     0.067040000000     0.397180000000     0.143347   
H90      H      0.448670000000     0.066620000000     0.309490000000     0.196485   
H91      H      0.319400000000     0.985760000000     0.381260000000     0.141713   
H92      H      0.279860000000     0.936700000000     0.456350000000     0.193037   
H93      H      0.708410000000     0.028020000000     0.476760000000     0.200814   
H95      H      0.244920000000     0.874770000000     0.482340000000     0.189224   
H96      H      0.453970000000     0.868660000000     0.653530000000     0.213783   
H97      H      0.368740000000     0.446170000000     0.056100000000     0.206321   
H98      H      0.405520000000     0.444960000000     0.872370000000     0.197261   
H99      H      0.568760000000     0.607740000000     0.969740000000     0.202332   
H100     H      0.538620000000     0.406000000000     0.022380000000     0.196471   
H101     H      0.305350000000     0.455510000000     0.865920000000     0.140089   
H102     H      0.412860000000     0.573780000000     0.830960000000     0.217728   
H103     H      0.607100000000     0.612070000000     0.862160000000     0.151227   
H104     H      0.659730000000     0.613860000000     0.938660000000     0.202372   
H105     H      0.630970000000     0.470190000000     0.078860000000     0.133239   
H106     H      0.540720000000     0.425030000000     0.137070000000     0.205998   
H107     H      0.326730000000     0.329570000000     0.082110000000     0.132653   
H108     H      0.242750000000     0.360320000000     0.005690000000     0.191608   
H109     H      0.706180000000     0.595880000000     0.969320000000     0.218223   
H110     H      0.517140000000     0.362850000000     0.122110000000     0.210042   
H111     H      0.220210000000     0.376080000000     0.952480000000     0.196574   
H112     H      0.422070000000     0.528420000000     0.807000000000     0.199719   
H113     H      0.423390000000     0.430310000000     0.569130000000     0.191741   
H114     H      0.413550000000     0.452560000000     0.374400000000     0.195259   
H115     H      0.585830000000     0.616410000000     0.469200000000     0.203002   
H116     H      0.597720000000     0.432610000000     0.478360000000     0.202858   
H117     H      0.314970000000     0.433730000000     0.390180000000     0.146353   
H118     H      0.391350000000     0.570130000000     0.379150000000     0.224302   
H119     H      0.603310000000     0.647380000000     0.367100000000     0.144553   
H120     H      0.712340000000     0.640650000000     0.419000000000     0.217142   
H121     H      0.725030000000     0.553060000000     0.537340000000     0.154706   
H122     H      0.600480000000     0.372470000000     0.581830000000     0.210171   
H123     H      0.475350000000     0.318330000000     0.609020000000     0.152241   
H124     H      0.318790000000     0.384190000000     0.559380000000     0.198241   
H125     H      0.747450000000     0.640410000000     0.471090000000     0.205519   
H126     H      0.632080000000     0.436920000000     0.593100000000     0.232116   
H127     H      0.270660000000     0.353820000000     0.515400000000     0.216335   
H128     H      0.397660000000     0.542470000000     0.333730000000     0.208001   
H129     H      0.506800000000     0.524180000000     0.714450000000     0.0428785  
H130     H      0.581620000000     0.559230000000     0.777920000000     0.0517713  
H131     H      0.515910000000     0.393650000000     0.700250000000     0.0523636  
H132     H      0.476690000000     0.396590000000     0.765920000000     0.0458171  
H133     H      0.579160000000     0.561300000000     0.691900000000     0.0517397  
H134     H      0.621660000000     0.530400000000     0.759910000000     0.0654314  
H135     H      0.543840000000     0.399330000000     0.789970000000     0.0527623  
H136     H      0.599300000000     0.361960000000     0.717600000000     0.148485   
H137     H      0.545070000000     0.560230000000     0.200930000000     0.047285   
H138     H      0.459030000000     0.574320000000     0.180840000000     0.0493401  
H139     H      0.508450000000     0.463980000000     0.199820000000     0.0485584  
H140     H      0.395180000000     0.403660000000     0.198540000000     0.0603175  
H141     H      0.534020000000     0.586630000000     0.249180000000     0.0542292  
H142     H      0.425790000000     0.536410000000     0.233720000000     0.0426827  
H143     H      0.395950000000     0.438060000000     0.246170000000     0.0463559  
H144     H      0.579400000000     0.429690000000     0.263540000000     0.149414   
H145     H      0.468030000000     0.685080000000     0.566210000000     0.0483086  
H146     H      0.569120000000     0.716650000000     0.545800000000     0.0462746  
H147     H      0.411960000000     0.660620000000     0.493160000000     0.0497737  
H148     H      0.463800000000     0.693270000000     0.416060000000     0.0583911  
H149     H      0.510900000000     0.753610000000     0.578930000000     0.0439685  
H150     H      0.572450000000     0.774710000000     0.512780000000     0.0353691  
H151     H      0.502210000000     0.759510000000     0.435610000000     0.0605647  
H152     H      0.324220000000     0.682820000000     0.507260000000     0.14836    
H153     H      0.599890000000     0.273900000000     0.456250000000     0.0427658  
H154     H      0.556150000000     0.276780000000     0.526930000000     0.0352428  
H155     H      0.538530000000     0.263360000000     0.388390000000     0.0601762  
H156     H      0.443050000000     0.256640000000     0.401650000000     0.0693484  
H157     H      0.591600000000     0.220030000000     0.497750000000     0.0515559  
H158     H      0.495840000000     0.210100000000     0.520440000000     0.0503579  
H159     H      0.425810000000     0.198110000000     0.440810000000     0.0637545  
H160     H      0.543170000000     0.207590000000     0.313240000000     0.162644   
H161     H      0.604040000000     0.106310000000     0.754250000000     0.0386667  
H162     H      0.541060000000     0.085700000000     0.684980000000     0.0437146  
H163     H      0.655550000000     0.050440000000     0.762230000000     0.0468733  
H164     H      0.619950000000     0.987340000000     0.702330000000     0.0499206  
H165     H      0.531030000000     0.077280000000     0.772230000000     0.0421089  
H166     H      0.490540000000     0.019820000000     0.709490000000     0.0438433  
H167     H      0.547410000000     0.951000000000     0.724370000000     0.0543467  
H168     H      0.712380000000     0.018340000000     0.832050000000     0.156878   
H169     H      0.364320000000     0.836410000000     0.245070000000     0.0494088  
H170     H      0.461720000000     0.890260000000     0.214750000000     0.0398647  
H171     H      0.307870000000     0.881850000000     0.230860000000     0.0558941  
H172     H      0.356560000000     0.967660000000     0.186210000000     0.0546596  
H173     H      0.419520000000     0.851860000000     0.291690000000     0.0627409  
H174     H      0.481290000000     0.942570000000     0.252780000000     0.0589835  
H175     H      0.412270000000     0.995680000000     0.232380000000     0.0558659  
H176     H      0.237120000000     0.909830000000     0.331470000000     0.151878   
H177     H      0.437370000000     0.760820000000     0.960940000000     0.0387643  
H178     H      0.451570000000     0.692710000000     0.001750000000     0.0505045  
H179     H      0.504730000000     0.813180000000     0.867990000000     0.0526054  
H180     H      0.443220000000     0.721430000000     0.885470000000     0.0492379  
H181     H      0.490090000000     0.786290000000     0.010180000000     0.0357918  
H182     H      0.530010000000     0.732370000000     0.006470000000     0.0600623  
H183     H      0.503800000000     0.720120000000     0.864840000000     0.0624617  
H184     H      0.679860000000     0.894000000000     0.876650000000     0.179949   
H185     H      0.370910000000     0.119550000000     0.084240000000     0.0428776  
H186     H      0.432790000000     0.215500000000     0.086010000000     0.0467721  
H187     H      0.487990000000     0.205420000000     0.987640000000     0.0633581  
H188     H      0.438910000000     0.247450000000     0.944350000000     0.0716755  
H189     H      0.329800000000     0.126260000000     0.031980000000     0.0433831  
H190     H      0.359610000000     0.205570000000     0.072510000000     0.0468482  
H191     H      0.367700000000     0.194220000000     0.959100000000     0.056895   
H192     H      0.507270000000     0.166950000000     0.894200000000     0.147187   
H193     H      0.765150000000     0.177880000000     0.513980000000     0.0363185  
H194     H      0.833650000000     0.270450000000     0.521850000000     0.0347364  
H195     H      0.737390000000     0.173040000000     0.412780000000     0.0562957  
H196     H      0.784190000000     0.262680000000     0.376620000000     0.0494019  
H197     H      0.726570000000     0.204210000000     0.540160000000     0.0401748  
H198     H      0.780790000000     0.290990000000     0.502310000000     0.0228329  
H199     H      0.746620000000     0.283860000000     0.410580000000     0.0515111  
H200     H      0.593940000000     0.127260000000     0.336140000000     0.17806    
H201     H      0.201440000000     0.690060000000     0.476070000000     0.0396207  
H202     H      0.128730000000     0.718720000000     0.482560000000     0.0348278  
H203     H      0.241990000000     0.676440000000     0.560120000000     0.0581855  
H204     H      0.195920000000     0.696340000000     0.620200000000     0.0544854  
H205     H      0.227130000000     0.757400000000     0.450400000000     0.0399319  
H206     H      0.181390000000     0.777320000000     0.510700000000     0.0258325  
H207     H      0.222240000000     0.763540000000     0.593930000000     0.0508817  
H208     H      0.400630000000     0.737050000000     0.608880000000     0.154374   
H209     H      0.693220000000     0.460270000000     0.468200000000     0.0308884  
H210     H      0.667200000000     0.410860000000     0.395370000000     0.0454407  
H211     H      0.752710000000     0.566230000000     0.448870000000     0.0402841  
H212     H      0.745910000000     0.580210000000     0.362020000000     0.0577503  
H213     H      0.729000000000     0.423130000000     0.467690000000     0.0380215  
H214     H      0.741770000000     0.448850000000     0.379980000000     0.0470509  
H215     H      0.785400000000     0.545330000000     0.357100000000     0.0611497  
H216     H      0.850560000000     0.655880000000     0.488900000000     0.1356     
H217     H      0.244710000000     0.411050000000     0.553460000000     0.0366346  
H218     H      0.307060000000     0.491630000000     0.594540000000     0.0404598  
H219     H      0.263090000000     0.442880000000     0.464550000000     0.0535784  
H220     H      0.315900000000     0.545490000000     0.448500000000     0.0565441  
H221     H      0.197080000000     0.426150000000     0.579530000000     0.043245   
H222     H      0.264430000000     0.522990000000     0.570170000000     0.0525507  
H223     H      0.263420000000     0.547410000000     0.481270000000     0.0554785  
H224     H      0.132400000000     0.409770000000     0.367640000000     0.170528   
H225     H      0.058220000000     0.566930000000     0.728080000000     0.0471764  
H226     H      0.019900000000     0.474820000000     0.766310000000     0.0447897  
H227     H      0.990370000000     0.603110000000     0.719880000000     0.0500016  
H228     H      0.904760000000     0.542480000000     0.764180000000     0.0572682  
H229     H      0.052600000000     0.521170000000     0.688890000000     0.0441778  
H230     H      0.957990000000     0.449810000000     0.724630000000     0.0453344  
H231     H      0.882310000000     0.490540000000     0.725770000000     0.052838   
H232     H      0.978840000000     0.667240000000     0.643890000000     0.149749   
H233     H      0.965520000000     0.496730000000     0.240060000000     0.0379188  
H234     H      0.049210000000     0.547070000000     0.293980000000     0.0420357  
H235     H      0.989740000000     0.388010000000     0.210060000000     0.0565355  
H236     H      0.956710000000     0.399750000000     0.280240000000     0.0361486  
H237     H      0.026300000000     0.549780000000     0.208910000000     0.0485409  
H238     H      0.097700000000     0.536190000000     0.263200000000     0.0695107  
H239     H      0.016200000000     0.385570000000     0.296000000000     0.0457165  
H240     H      0.078820000000     0.359000000000     0.238870000000     0.157168   
H241     H      0.726840000000     0.210430000000     0.872350000000     0.0337771  
H242     H      0.824680000000     0.260380000000     0.852870000000     0.0369973  
H243     H      0.761940000000     0.242460000000     0.970680000000     0.0547814  
H244     H      0.862670000000     0.245530000000     0.999590000000     0.052541   
H245     H      0.739400000000     0.155260000000     0.869010000000     0.052956   
H246     H      0.840970000000     0.208080000000     0.875780000000     0.0467374  
H247     H      0.839160000000     0.189040000000     0.967660000000     0.059754   
H248     H      0.707060000000     0.198520000000     0.083290000000     0.151899   
H249     H      0.108250000000     0.744470000000     0.090450000000     0.0436733  
H250     H      0.208510000000     0.807290000000     0.110920000000     0.0472015  
H251     H      0.209530000000     0.724680000000     0.141210000000     0.0541378  
H252     H      0.291830000000     0.742370000000     0.093310000000     0.0533319  
H253     H      0.124790000000     0.740090000000     0.032840000000     0.0315914  
H254     H      0.198250000000     0.827280000000     0.050870000000     0.0403712  
H255     H      0.240930000000     0.715860000000     0.043600000000     0.0619356  
H256     H      0.121100000000     0.595750000000     0.167850000000     0.15553    
H257     H      0.690810000000     0.367450000000     0.963300000000     0.0451288  
H258     H      0.708560000000     0.371770000000     0.048860000000     0.0432299  
H259     H      0.750300000000     0.458880000000     0.926910000000     0.0579202  
H260     H      0.803290000000     0.529390000000     0.980250000000     0.0594001  
H261     H      0.623610000000     0.349950000000     0.987940000000     0.038569   
H262     H      0.674680000000     0.412370000000     0.049340000000     0.0390123  
H263     H      0.737430000000     0.517170000000     0.004120000000     0.0602168  
H264     H      0.638280000000     0.502570000000     0.864120000000     0.163178   
H265     H      0.227340000000     0.458200000000     0.915320000000     0.0400226  
H266     H      0.213190000000     0.444150000000     0.003680000000     0.0449848  
H267     H      0.285030000000     0.552560000000     0.887030000000     0.0582239  
H268     H      0.332170000000     0.606510000000     0.952960000000     0.054005   
H269     H      0.153360000000     0.430760000000     0.929400000000     0.0409688  
H270     H      0.187350000000     0.490750000000     0.997210000000     0.0299914  
H271     H      0.264090000000     0.594740000000     0.972150000000     0.0719461  
H272     H      0.215650000000     0.581350000000     0.806510000000     0.153249   
H273     H      0.662320000000     0.793320000000     0.565350000000     0.0391571  
H274     H      0.643520000000     0.710630000000     0.605290000000     0.0480117  
H275     H      0.652490000000     0.749610000000     0.489890000000     0.0493239  
H276     H      0.699830000000     0.694150000000     0.479580000000     0.0436025  
H277     H      0.731460000000     0.816050000000     0.596620000000     0.0530853  
H278     H      0.719400000000     0.729870000000     0.614520000000     0.0519381  
H279     H      0.761390000000     0.735520000000     0.516690000000     0.053582   
H280     H      0.747180000000     0.857480000000     0.381680000000     0.149218   
H281     H      0.340590000000     0.233230000000     0.353860000000     0.0625041  
H282     H      0.260710000000     0.150230000000     0.380910000000     0.0705073  
H283     H      0.308470000000     0.191080000000     0.457680000000     0.0714788  
H284     H      0.221930000000     0.197770000000     0.486510000000     0.0616907  
H285     H      0.298030000000     0.267170000000     0.347630000000     0.0520095  
H286     H      0.222420000000     0.177890000000     0.342420000000     0.0457864  
H287     H      0.238840000000     0.252320000000     0.441990000000     0.0559047  
H288     H      0.392950000000     0.209010000000     0.526180000000     0.150218   
H289     H      0.633560000000     0.831510000000     0.419840000000     0.062306   
H290     H      0.698040000000     0.886040000000     0.480920000000     0.0547154  
H291     H      0.663810000000     0.882890000000     0.345070000000     0.056909   
H292     H      0.741790000000     0.974140000000     0.348340000000     0.0548317  
H293     H      0.589820000000     0.842550000000     0.455340000000     0.0337711  
H294     H      0.667960000000     0.930340000000     0.472630000000     0.0320602  
H295     H      0.699190000000     0.993300000000     0.377490000000     0.0552713  
H296     H      0.551710000000     0.887190000000     0.250650000000     0.150877   
H297     H      0.236320000000     0.941110000000     0.574020000000     0.0484205  
H298     H      0.307310000000     0.988070000000     0.636480000000     0.0529593  
H299     H      0.284650000000     0.004090000000     0.494890000000     0.0394591  
H300     H      0.369490000000     0.095340000000     0.513760000000     0.0553288  
H301     H      0.202490000000     0.964710000000     0.608490000000     0.0515281  
H302     H      0.292800000000     0.043180000000     0.626760000000     0.0490697  
H303     H      0.323680000000     0.103400000000     0.550030000000     0.0542747  
H304     H      0.240140000000     0.011900000000     0.410380000000     0.150821   
H305     H      0.083900000000     0.771790000000     0.487870000000     0.0353062  
H306     H      0.001200000000     0.788190000000     0.493470000000     0.0356052  
H307     H      0.104950000000     0.757990000000     0.381620000000     0.0464851  
H308     H      0.125020000000     0.836520000000     0.418800000000     0.0319766  
H309     H      0.017290000000     0.715050000000     0.504980000000     0.0611483  
H310     H      0.961370000000     0.746970000000     0.445590000000     0.0756882  
H311     H      0.087240000000     0.842780000000     0.365000000000     0.0518492  
H312     H      0.034290000000     0.683140000000     0.312530000000     0.157382   
H313     H      0.935140000000     0.214360000000     0.492610000000     0.0457421  
H314     H      0.852830000000     0.128250000000     0.523110000000     0.0373268  
H315     H      0.030920000000     0.247000000000     0.553640000000     0.0519801  
H316     H      0.006920000000     0.172640000000     0.614080000000     0.0481209  
H317     H      0.877450000000     0.224190000000     0.508670000000     0.0434746  
H318     H      0.856390000000     0.156470000000     0.576570000000     0.042202   
H319     H      0.948950000000     0.179800000000     0.633330000000     0.049332   
H320     H      0.102490000000     0.344210000000     0.575400000000     0.146663   
H321     H      0.922960000000     0.002450000000     0.754090000000     0.0396695  
H322     H      0.861880000000     0.976930000000     0.683160000000     0.044744   
H323     H      0.936370000000     0.872890000000     0.791050000000     0.0506241  
H324     H      0.982880000000     0.937240000000     0.728020000000     0.0411514  
H325     H      0.847770000000     0.964110000000     0.769840000000     0.0544361  
H326     H      0.821510000000     0.907850000000     0.704680000000     0.0641133  
H327     H      0.936900000000     0.873870000000     0.704000000000     0.0476055  
H328     H      0.870480000000     0.766890000000     0.774780000000     0.152591   
H329     H      0.153560000000     0.040940000000     0.247080000000     0.0506788  
H330     H      0.075600000000     0.961750000000     0.285930000000     0.0534072  
H331     H      0.127340000000     0.109030000000     0.240580000000     0.0510252  
H332     H      0.027110000000     0.085510000000     0.258890000000     0.0446139  
H333     H      0.123740000000     0.989260000000     0.208160000000     0.0533377  
H334     H      0.025050000000     0.952460000000     0.236260000000     0.0459155  
H335     H      0.996170000000     0.036700000000     0.215730000000     0.0523203  
H336     H      0.182270000000     0.184230000000     0.159570000000     0.153949   
H337     H      0.798800000000     0.718800000000     0.998730000000     0.0394336  
H338     H      0.748980000000     0.695870000000     0.074020000000     0.0490838  
H339     H      0.728060000000     0.784120000000     0.058080000000     0.056289   
H340     H      0.625420000000     0.724750000000     0.043380000000     0.0513625  
H341     H      0.730330000000     0.699790000000     0.965360000000     0.0488897  
H342     H      0.719380000000     0.639530000000     0.039890000000     0.0410169  
H343     H      0.636200000000     0.712110000000     0.986170000000     0.0546273  
H344     H      0.703080000000     0.873440000000     0.042600000000     0.156658   
H345     H      0.174700000000     0.236620000000     0.902830000000     0.0356626  
H346     H      0.170670000000     0.242030000000     0.988370000000     0.044655   
H347     H      0.225170000000     0.193720000000     0.893860000000     0.0549737  
H348     H      0.274460000000     0.169110000000     0.964940000000     0.0503904  
H349     H      0.207780000000     0.304120000000     0.914870000000     0.0396989  
H350     H      0.248840000000     0.282080000000     0.994050000000     0.0350841  
H351     H      0.312720000000     0.238120000000     0.977140000000     0.0506445  
H352     H      0.313030000000     0.222170000000     0.793040000000     0.165202   
H353     H      0.756100000000     0.951860000000     0.102980000000     0.0577876  
H354     H      0.832690000000     0.010910000000     0.154950000000     0.0462347  
H355     H      0.806240000000     0.999900000000     0.023790000000     0.0437345  
H356     H      0.882300000000     0.102320000000     0.023420000000     0.0451276  
H357     H      0.724300000000     0.984120000000     0.128680000000     0.059647   
H358     H      0.814100000000     0.063080000000     0.140080000000     0.0537463  
H359     H      0.831720000000     0.108420000000     0.055260000000     0.0663805  
H360     H      0.728480000000     0.965310000000     0.955250000000     0.166904   
H361     H      0.191110000000     0.930500000000     0.977530000000     0.0415378  
H362     H      0.104520000000     0.845670000000     0.960960000000     0.0378229  
H363     H      0.219050000000     0.995520000000     0.888850000000     0.0597564  
H364     H      0.143600000000     0.940520000000     0.830830000000     0.0509076  
H365     H      0.211170000000     0.878720000000     0.980510000000     0.0439365  
H366     H      0.140530000000     0.832640000000     0.918810000000     0.0403156  
H367     H      0.163890000000     0.888950000000     0.842240000000     0.0506422  
H368     H      0.310250000000     0.072600000000     0.834930000000     0.171016   
H369     H      0.901280000000     0.721740000000     0.956700000000     0.0547769  
H370     H      0.010050000000     0.776590000000     0.943810000000     0.0490075  
H371     H      0.884310000000     0.704160000000     0.038120000000     0.0436302  
H372     H      0.974190000000     0.746940000000     0.090290000000     0.0502508  
H373     H      0.926860000000     0.686780000000     0.927560000000     0.0541817  
H374     H      0.022050000000     0.726150000000     0.977780000000     0.0329485  
H375     H      0.003230000000     0.709550000000     0.067780000000     0.0540136  
H376     H      0.791540000000     0.589780000000     0.059660000000     0.148147   
H377     H      0.079480000000     0.284250000000     0.918640000000     0.0331441  
H378     H      0.985600000000     0.211240000000     0.891430000000     0.0425955  
H379     H      0.086350000000     0.262880000000     0.001540000000     0.05004    
H380     H      0.992610000000     0.194430000000     0.042770000000     0.0680556  
H381     H      0.035340000000     0.312970000000     0.893610000000     0.0476402  
H382     H      0.945030000000     0.233160000000     0.920620000000     0.0495456  
H383     H      0.958100000000     0.230600000000     0.012950000000     0.0508004  
H384     H      0.169650000000     0.359670000000     0.057620000000     0.145468   
N1       N      0.537280000000     0.476290000000     0.689680000000    -0.161451   
N2       N      0.540490000000     0.472220000000     0.787610000000    -0.165224   
N3       N      0.508680000000     0.501760000000     0.258300000000    -0.162493   
N4       N      0.427320000000     0.488990000000     0.183550000000    -0.165926   
N5       N      0.453030000000     0.738910000000     0.516540000000    -0.158491   
N6       N      0.519290000000     0.702840000000     0.479260000000    -0.165991   
N7       N      0.528090000000     0.198640000000     0.437840000000    -0.150545   
N8       N      0.496350000000     0.268200000000     0.466800000000    -0.164073   
N9       N      0.572590000000     0.027710000000     0.787160000000    -0.156495   
N10      N      0.568360000000     0.026250000000     0.687830000000    -0.164448   
N11      N      0.371590000000     0.895960000000     0.286430000000    -0.154926   
N12      N      0.418370000000     0.937980000000     0.197550000000    -0.163851   
N13      N      0.524510000000     0.813560000000     0.941380000000    -0.153022   
N14      N      0.494650000000     0.704640000000     0.939290000000    -0.156989   
N15      N      0.414190000000     0.139460000000     0.020130000000    -0.159531   
N16      N      0.416500000000     0.239860000000     0.015940000000    -0.164554   
N17      N      0.699640000000     0.185560000000     0.469120000000    -0.15776    
N18      N      0.814140000000     0.272800000000     0.447570000000    -0.168536   
N19      N      0.268900000000     0.748830000000     0.517240000000    -0.153493   
N20      N      0.156270000000     0.704020000000     0.553070000000    -0.165994   
N21      N      0.783160000000     0.510770000000     0.454680000000    -0.161832   
N22      N      0.699390000000     0.495510000000     0.379540000000    -0.164645   
N23      N      0.199940000000     0.441770000000     0.504250000000    -0.162879   
N24      N      0.317720000000     0.520150000000     0.521930000000    -0.165694   
N25      N      0.986210000000     0.545850000000     0.677930000000    -0.159608   
N26      N      0.957510000000     0.502980000000     0.769370000000    -0.167728   
N27      N      0.009370000000     0.470020000000     0.201950000000    -0.158621   
N28      N      0.035800000000     0.466380000000     0.301810000000    -0.165945   
N29      N      0.732750000000     0.170840000000     0.938360000000    -0.148567   
N30      N      0.849350000000     0.258970000000     0.926050000000    -0.163757   
N31      N      0.143320000000     0.692140000000     0.087740000000    -0.156891   
N32      N      0.251650000000     0.789100000000     0.063620000000    -0.16122    
N33      N      0.665540000000     0.427750000000     0.950720000000    -0.158746   
N34      N      0.758990000000     0.454680000000     0.022050000000    -0.161339   
N35      N      0.196970000000     0.515090000000     0.905320000000    -0.159108   
N36      N      0.277000000000     0.526910000000     0.983710000000    -0.164301   
N37      N      0.730090000000     0.806270000000     0.523550000000    -0.160113   
N38      N      0.681000000000     0.694900000000     0.550700000000    -0.165918   
N39      N      0.335340000000     0.262550000000     0.416570000000    -0.15669    
N40      N      0.213960000000     0.177720000000     0.415340000000    -0.157255   
N41      N      0.605650000000     0.886220000000     0.387820000000    -0.155348   
N42      N      0.726260000000     0.943330000000     0.420610000000    -0.157614   
N43      N      0.225450000000     0.005470000000     0.539320000000    -0.153579   
N44      N      0.344160000000     0.042110000000     0.575800000000    -0.164194   
N45      N      0.040820000000     0.719740000000     0.432970000000    -0.15372    
N46      N      0.038080000000     0.819760000000     0.426170000000    -0.160131   
N47      N      0.954700000000     0.254510000000     0.554800000000    -0.154369   
N48      N      0.928910000000     0.145470000000     0.568940000000    -0.165775   
N49      N      0.899100000000     0.924880000000     0.787890000000    -0.155101   
N50      N      0.908280000000     0.932400000000     0.687600000000    -0.159766   
N51      N      0.100310000000     0.052050000000     0.190480000000    -0.157942   
N52      N      0.041730000000     0.017660000000     0.274140000000    -0.165691   
N53      N      0.761490000000     0.770170000000     0.999940000000    -0.154682   
N54      N      0.663920000000     0.675000000000     0.043290000000    -0.167575   
N55      N      0.268560000000     0.276030000000     0.903780000000    -0.157738   
N56      N      0.220360000000     0.201710000000     0.981650000000    -0.165594   
N57      N      0.742630000000     0.008010000000     0.055400000000    -0.147295   
N58      N      0.864640000000     0.058560000000     0.090500000000    -0.159719   
N59      N      0.241910000000     0.937410000000     0.921580000000    -0.153754   
N60      N      0.119070000000     0.894180000000     0.895920000000    -0.16531    
N61      N      0.912140000000     0.661950000000     0.001420000000    -0.158435   
N62      N      0.995630000000     0.767170000000     0.017950000000    -0.168883   
N63      N      0.047060000000     0.308850000000     0.969990000000    -0.160594   
N64      N      0.986720000000     0.196990000000     0.966660000000    -0.163031   
O1       O      0.173100000000     0.113340000000     0.972630000000    -0.388215   
O2       O      0.130440000000     0.146160000000     0.013750000000    -0.351705   
O3       O      0.921720000000     0.979450000000     0.846670000000    -0.368233   
O4       O      0.922440000000     0.899880000000     0.863170000000    -0.364947   
O5       O      0.974600000000     0.123520000000     0.931870000000    -0.360298   
O6       O      0.018800000000     0.142200000000     0.004990000000    -0.366008   
O7       O      0.111180000000     0.967090000000     0.904660000000    -0.377956   
O8       O      0.034130000000     0.884640000000     0.921210000000    -0.34098    
O9       O      0.147620000000     0.074780000000     0.881840000000    -0.333213   
O10      O      0.192180000000     0.022080000000     0.985350000000    -0.531034   
O11      O      0.028930000000     0.096550000000     0.853660000000    -0.537819   
O12      O      0.882890000000     0.045350000000     0.870020000000    -0.328918   
O13      O      0.054460000000     0.073940000000     0.955650000000    -0.501862   
O14      O      0.013440000000     0.986300000000     0.910800000000    -0.62808    
O15      O      0.013030000000     0.843340000000     0.050630000000    -0.366749   
O16      O      0.970020000000     0.824890000000     0.976980000000    -0.371214   
O17      O      0.885940000000     0.991970000000     0.088380000000    -0.365387   
O18      O      0.954780000000     0.076630000000     0.068660000000    -0.336096   
O19      O      0.822390000000     0.853740000000     0.018340000000    -0.392229   
O20      O      0.853180000000     0.821350000000     0.966090000000    -0.348357   
O21      O      0.071000000000     0.991440000000     0.134960000000    -0.364701   
O22      O      0.070220000000     0.070300000000     0.116130000000    -0.360221   
O23      O      0.985500000000     0.874790000000     0.136600000000    -0.526886   
O24      O      0.125390000000     0.935230000000     0.091320000000    -0.349735   
O25      O      0.816840000000     0.902380000000     0.085600000000    -0.312384   
O26      O      0.827400000000     0.958690000000     0.965410000000    -0.530857   
O27      O      0.939870000000     0.894950000000     0.027620000000    -0.636055   
O28      O      0.979570000000     0.980700000000     0.071340000000    -0.499239   
O29      O      0.047540000000     0.936620000000     0.989190000000    -0.497044   
O30      O      0.942780000000     0.031600000000     0.991570000000    -0.641467   
O31      O      0.089110000000     0.022810000000     0.034700000000    -0.630764   
O32      O      0.903830000000     0.946650000000     0.946550000000    -0.481081   
O33      O      0.976520000000     0.847890000000     0.440710000000    -0.378078   
O34      O      0.066820000000     0.911580000000     0.418830000000    -0.349937   
O35      O      0.822630000000     0.982720000000     0.401950000000    -0.356304   
O36      O      0.800050000000     0.962820000000     0.478830000000    -0.352889   
O37      O      0.985860000000     0.019590000000     0.328610000000    -0.374976   
O38      O      0.057530000000     0.997040000000     0.351260000000    -0.364214   
O39      O      0.819510000000     0.836920000000     0.495180000000    -0.369587   
O40      O      0.805180000000     0.889740000000     0.539010000000    -0.354177   
O41      O      0.870840000000     0.836590000000     0.400210000000    -0.310066   
O42      O      0.898140000000     0.796420000000     0.517350000000    -0.528008   
O43      O      0.864480000000     0.964810000000     0.327410000000    -0.520936   
O44      O      0.937180000000     0.093940000000     0.364070000000    -0.346083   
O45      O      0.965850000000     0.946520000000     0.410130000000    -0.486365   
O46      O      0.882220000000     0.938360000000     0.454730000000    -0.653135   
O47      O      0.970220000000     0.945520000000     0.631680000000    -0.368355   
O48      O      0.892220000000     0.959770000000     0.611110000000    -0.363739   
O49      O      0.128960000000     0.141580000000     0.451330000000    -0.376185   
O50      O      0.145770000000     0.087460000000     0.411200000000    -0.33886    
O51      O      0.992180000000     0.125860000000     0.539890000000    -0.375933   
O52      O      0.895970000000     0.062330000000     0.543000000000    -0.366835   
O53      O      0.133620000000     0.985010000000     0.560030000000    -0.356904   
O54      O      0.152410000000     0.998760000000     0.483060000000    -0.344506   
O55      O      0.093700000000     0.030150000000     0.625940000000    -0.527565   
O56      O      0.034850000000     0.891840000000     0.606970000000    -0.346001   
O57      O      0.112910000000     0.156750000000     0.543110000000    -0.33605    
O58      O      0.030840000000     0.168520000000     0.441680000000    -0.524101   
O59      O      0.992130000000     0.028950000000     0.551180000000    -0.628736   
O60      O      0.079800000000     0.039000000000     0.505430000000    -0.489382   
O61      O      0.933070000000     0.919730000000     0.541870000000    -0.49618    
O62      O      0.026260000000     0.055490000000     0.419840000000    -0.624727   
O63      O      0.020050000000     0.927960000000     0.497940000000    -0.635685   
O64      O      0.936880000000     0.048240000000     0.464260000000    -0.484999   
O65      O      0.028190000000     0.359750000000     0.014690000000    -0.348499   
O66      O      0.023080000000     0.371760000000     0.935230000000    -0.36874    
O67      O      0.816270000000     0.417220000000     0.048510000000    -0.378912   
O68      O      0.857420000000     0.505510000000     0.045320000000    -0.31351    
O69      O      0.862520000000     0.327180000000     0.965720000000    -0.3663     
O70      O      0.912370000000     0.347930000000     0.900450000000    -0.353346   
O71      O      0.009230000000     0.442520000000     0.131630000000    -0.362878   
O72      O      0.979910000000     0.504880000000     0.134300000000    -0.369097   
O73      O      0.943720000000     0.335370000000     0.092930000000    -0.330935   
O74      O      0.096300000000     0.428470000000     0.092130000000    -0.522356   
O75      O      0.777010000000     0.326260000000     0.016220000000    -0.520974   
O76      O      0.787770000000     0.395970000000     0.924680000000    -0.370202   
O77      O      0.942360000000     0.390310000000     0.987390000000    -0.492955   
O78      O      0.926500000000     0.436650000000     0.054860000000    -0.620485   
O79      O      0.130010000000     0.629560000000     0.040320000000    -0.365869   
O80      O      0.050230000000     0.620990000000     0.072800000000    -0.343398   
O81      O      0.947100000000     0.527370000000     0.838460000000    -0.380021   
O82      O      0.980340000000     0.467540000000     0.838360000000    -0.384424   
O83      O      0.924920000000     0.606140000000     0.959110000000    -0.360609   
O84      O      0.936990000000     0.600610000000     0.038720000000    -0.351258   
O85      O      0.152380000000     0.558170000000     0.926950000000    -0.363695   
O86      O      0.096750000000     0.474760000000     0.901830000000    -0.361559   
O87      O      0.139620000000     0.651260000000     0.938400000000    -0.525486   
O88      O      0.183440000000     0.571390000000     0.024540000000    -0.328518   
O89      O      0.008970000000     0.637020000000     0.878930000000    -0.353631   
O90      O      0.862230000000     0.542830000000     0.876190000000    -0.533068   
O91      O      0.016160000000     0.581430000000     0.983400000000    -0.637977   
O92      O      0.030200000000     0.533990000000     0.915760000000    -0.498133   
O93      O      0.045090000000     0.516200000000     0.050760000000    -0.491618   
O94      O      0.910970000000     0.453970000000     0.918020000000    -0.627429   
O95      O      0.059360000000     0.471050000000     0.985870000000    -0.640214   
O96      O      0.898640000000     0.499140000000     0.984940000000    -0.487526   
O97      O      0.956430000000     0.331890000000     0.569920000000    -0.345059   
O98      O      0.990000000000     0.327410000000     0.501490000000    -0.351178   
O99      O      0.824730000000     0.463640000000     0.493130000000    -0.398504   
O100     O      0.878600000000     0.551600000000     0.489300000000    -0.328778   
O101     O      0.858070000000     0.357870000000     0.414510000000    -0.392387   
O102     O      0.913770000000     0.327850000000     0.456520000000    -0.336459   
O103     O      0.973610000000     0.483390000000     0.630290000000    -0.362508   
O104     O      0.956130000000     0.551650000000     0.600860000000    -0.357315   
O105     O      0.861020000000     0.363320000000     0.603900000000    -0.353914   
O106     O      0.995420000000     0.394830000000     0.648750000000    -0.521016   
O107     O      0.774300000000     0.370280000000     0.449320000000    -0.524988   
O108     O      0.849920000000     0.472280000000     0.379660000000    -0.340463   
O109     O      0.925340000000     0.392630000000     0.498640000000    -0.498562   
O110     O      0.907700000000     0.461200000000     0.531810000000    -0.616883   
O111     O      0.132730000000     0.616700000000     0.562260000000    -0.370741   
O112     O      0.061430000000     0.639300000000     0.540170000000    -0.352658   
O113     O      0.071700000000     0.509250000000     0.369090000000    -0.348863   
O114     O      0.021640000000     0.419660000000     0.374760000000    -0.372311   
O115     O      0.039310000000     0.643860000000     0.408770000000    -0.347262   
O116     O      0.996160000000     0.639020000000     0.474580000000    -0.344029   
O117     O      0.157690000000     0.486680000000     0.524660000000    -0.388225   
O118     O      0.107380000000     0.421170000000     0.474440000000    -0.352633   
O119     O      0.196270000000     0.595100000000     0.490390000000    -0.533296   
O120     O      0.151770000000     0.534100000000     0.604560000000    -0.330491   
O121     O      0.102730000000     0.620050000000     0.356030000000    -0.332589   
O122     O      0.960740000000     0.542150000000     0.334640000000    -0.530815   
O123     O      0.058290000000     0.577300000000     0.479580000000    -0.639389   
O124     O      0.074400000000     0.507090000000     0.449500000000    -0.466025   
O125     O      0.022540000000     0.513140000000     0.565360000000    -0.495579   
O126     O      0.959350000000     0.455940000000     0.411750000000    -0.613172   
O127     O      0.042320000000     0.441030000000     0.535560000000    -0.640514   
O128     O      0.939960000000     0.528820000000     0.442030000000    -0.474803   
O129     O      0.338970000000     0.971260000000     0.906300000000    -0.340938   
O130     O      0.312540000000     0.951520000000     0.981720000000    -0.351566   
O131     O      0.529540000000     0.875020000000     0.987980000000    -0.324603   
O132     O      0.576500000000     0.907310000000     0.924360000000    -0.311773   
O133     O      0.339060000000     0.821790000000     0.029250000000    -0.358825   
O134     O      0.313620000000     0.880610000000     0.051260000000    -0.352117   
O135     O      0.505640000000     0.012410000000     0.839860000000    -0.36227    
O136     O      0.586470000000     0.005190000000     0.865130000000    -0.344748   
O137     O      0.384140000000     0.911470000000     0.855030000000    -0.338257   
O138     O      0.431720000000     0.048890000000     0.843570000000    -0.512413   
O139     O      0.387170000000     0.812800000000     0.924750000000    -0.540172   
O140     O      0.403500000000     0.780080000000     0.034910000000    -0.338559   
O141     O      0.391050000000     0.922370000000     0.967130000000    -0.493183   
O142     O      0.481270000000     0.929990000000     0.925540000000    -0.619956   
O143     O      0.645820000000     0.135690000000     0.972700000000    -0.36631    
O144     O      0.659850000000     0.083340000000     0.928570000000    -0.327682   
O145     O      0.481850000000     0.949110000000     0.143850000000    -0.377862   
O146     O      0.402330000000     0.960060000000     0.119670000000    -0.363152   
O147     O      0.648130000000     0.983550000000     0.073870000000    -0.343931   
O148     O      0.669760000000     0.997030000000     0.997430000000    -0.342059   
O149     O      0.483400000000     0.117350000000     0.015190000000    -0.381358   
O150     O      0.395830000000     0.052180000000     0.041330000000    -0.36394    
O151     O      0.585820000000     0.109080000000     0.079030000000    -0.517753   
O152     O      0.585190000000     0.181110000000     0.977920000000    -0.316922   
O153     O      0.607600000000     0.014360000000     0.145720000000    -0.334878   
O154     O      0.537410000000     0.881280000000     0.116580000000    -0.533075   
O155     O      0.591440000000     0.031350000000     0.018950000000    -0.648422   
O156     O      0.500360000000     0.020800000000     0.062410000000    -0.481749   
O157     O      0.537680000000     0.044560000000     0.930480000000    -0.494791   
O158     O      0.443690000000     0.912050000000     0.056410000000    -0.620408   
O159     O      0.449200000000     0.032200000000     0.969810000000    -0.633611   
O160     O      0.534420000000     0.921580000000     0.013280000000    -0.430262   
O161     O      0.477310000000     0.110810000000     0.417330000000    -0.334635   
O162     O      0.521340000000     0.130710000000     0.490090000000    -0.373216   
O163     O      0.340120000000     0.829700000000     0.538380000000    -0.343026   
O164     O      0.338870000000     0.809230000000     0.465470000000    -0.334502   
O165     O      0.371710000000     0.978230000000     0.582000000000    -0.372094   
O166     O      0.433800000000     0.060610000000     0.551690000000    -0.346045   
O167     O      0.396030000000     0.955930000000     0.341840000000    -0.357117   
O168     O      0.402920000000     0.879720000000     0.360510000000    -0.367659   
O169     O      0.348240000000     0.019480000000     0.395070000000    -0.333475   
O170     O      0.474790000000     0.062270000000     0.333870000000    -0.345047   
O171     O      0.279730000000     0.909450000000     0.479780000000    -0.540378   
O172     O      0.294460000000     0.883090000000     0.581710000000    -0.319842   
O173     O      0.422650000000     0.011660000000     0.488040000000    -0.484748   
O174     O      0.381380000000     0.924720000000     0.442830000000    -0.633706   
O175     O      0.584890000000     0.953480000000     0.389210000000    -0.354501   
O176     O      0.516290000000     0.869310000000     0.410890000000    -0.34511    
O177     O      0.553750000000     0.974190000000     0.628710000000    -0.379349   
O178     O      0.546450000000     0.050680000000     0.612440000000    -0.380578   
O179     O      0.486260000000     0.822210000000     0.544750000000    -0.352709   
O180     O      0.439550000000     0.802660000000     0.472910000000    -0.364094   
O181     O      0.646030000000     0.099620000000     0.453710000000    -0.384377   
O182     O      0.617960000000     0.126880000000     0.512140000000    -0.350613   
O183     O      0.671350000000     0.010250000000     0.491480000000    -0.538748   
O184     O      0.648930000000     0.049840000000     0.382950000000    -0.296703   
O185     O      0.606820000000     0.913620000000     0.583660000000    -0.363554   
O186     O      0.474560000000     0.859540000000     0.633620000000    -0.521814   
O187     O      0.532590000000     0.918760000000     0.484390000000    -0.638071   
O188     O      0.572220000000     0.005200000000     0.528710000000    -0.499574   
O189     O      0.493610000000     0.968880000000     0.404890000000    -0.482966   
O190     O      0.461330000000     0.962300000000     0.566190000000    -0.62066    
O191     O      0.530330000000     0.050260000000     0.448870000000    -0.642864   
O192     O      0.424010000000     0.878830000000     0.522060000000    -0.47034    
O193     O      0.425510000000     0.313650000000     0.048410000000    -0.366782   
O194     O      0.451320000000     0.320500000000     0.974220000000    -0.373165   
O195     O      0.312410000000     0.470030000000     0.006010000000    -0.395374   
O196     O      0.375830000000     0.556910000000     0.006290000000    -0.344712   
O197     O      0.307970000000     0.364470000000     0.908950000000    -0.402328   
O198     O      0.370190000000     0.330690000000     0.915490000000    -0.33217    
O199     O      0.432340000000     0.446200000000     0.124880000000    -0.37713    
O200     O      0.446020000000     0.531230000000     0.109170000000    -0.379847   
O201     O      0.360750000000     0.337580000000     0.104710000000    -0.326651   
O202     O      0.514460000000     0.395520000000     0.118590000000    -0.53268    
O203     O      0.251690000000     0.378490000000     0.974630000000    -0.51925    
O204     O      0.324360000000     0.482480000000     0.889350000000    -0.354      
O205     O      0.396960000000     0.384710000000     0.986640000000    -0.5035     
O206     O      0.396770000000     0.454830000000     0.033010000000    -0.630751   
O207     O      0.619640000000     0.584780000000     0.062360000000    -0.369803   
O208     O      0.563640000000     0.624140000000     0.047910000000    -0.355731   
O209     O      0.524240000000     0.513980000000     0.841300000000    -0.382427   
O210     O      0.494460000000     0.424630000000     0.854010000000    -0.378706   
O211     O      0.492880000000     0.632920000000     0.908510000000    -0.35352    
O212     O      0.486990000000     0.633130000000     0.986690000000    -0.369662   
O213     O      0.633540000000     0.477780000000     0.977060000000    -0.384949   
O214     O      0.566980000000     0.404150000000     0.940170000000    -0.352434   
O215     O      0.667220000000     0.591640000000     0.963460000000    -0.52754    
O216     O      0.653460000000     0.507980000000     0.065920000000    -0.33134    
O217     O      0.578850000000     0.625100000000     0.864070000000    -0.33422    
O218     O      0.430210000000     0.550690000000     0.832320000000    -0.528264   
O219     O      0.540500000000     0.570100000000     0.973800000000    -0.63634    
O220     O      0.541890000000     0.498760000000     0.929950000000    -0.486645   
O221     O      0.514310000000     0.497990000000     0.058120000000    -0.492449   
O222     O      0.423570000000     0.455720000000     0.903090000000    -0.6296     
O223     O      0.519330000000     0.426920000000     0.011310000000    -0.63904    
O224     O      0.420340000000     0.529150000000     0.950370000000    -0.487047   
O225     O      0.511000000000     0.335740000000     0.509390000000    -0.368728   
O226     O      0.501620000000     0.343940000000     0.429600000000    -0.36839    
O227     O      0.373760000000     0.503110000000     0.480400000000    -0.342482   
O228     O      0.406060000000     0.525610000000     0.553100000000    -0.363522   
O229     O      0.353390000000     0.339360000000     0.444870000000    -0.352879   
O230     O      0.415440000000     0.342950000000     0.394150000000    -0.33216    
O231     O      0.525310000000     0.438430000000     0.622160000000    -0.377338   
O232     O      0.516870000000     0.513730000000     0.620400000000    -0.380801   
O233     O      0.449740000000     0.332380000000     0.592850000000    -0.323551   
O234     O      0.599420000000     0.405830000000     0.580060000000    -0.53431    
O235     O      0.309650000000     0.379500000000     0.526260000000    -0.530411   
O236     O      0.301460000000     0.403310000000     0.414660000000    -0.341705   
O237     O      0.449530000000     0.391650000000     0.477980000000    -0.495054   
O238     O      0.446270000000     0.444030000000     0.541680000000    -0.619231   
O239     O      0.660140000000     0.616230000000     0.525840000000    -0.384802   
O240     O      0.592200000000     0.620080000000     0.564890000000    -0.350342   
O241     O      0.512350000000     0.539670000000     0.324880000000    -0.37419    
O242     O      0.498850000000     0.455270000000     0.329680000000    -0.370532   
O243     O      0.505770000000     0.635010000000     0.437280000000    -0.363456   
O244     O      0.514810000000     0.627280000000     0.517260000000    -0.369458   
O245     O      0.649030000000     0.534840000000     0.399260000000    -0.359007   
O246     O      0.600480000000     0.447210000000     0.388780000000    -0.359813   
O247     O      0.712940000000     0.623910000000     0.450250000000    -0.529603   
O248     O      0.696220000000     0.519720000000     0.522880000000    -0.363978   
O249     O      0.563290000000     0.641450000000     0.357490000000    -0.322383   
O250     O      0.412210000000     0.556940000000     0.363910000000    -0.53512    
O251     O      0.562400000000     0.577880000000     0.470790000000    -0.629699   
O252     O      0.564050000000     0.522860000000     0.407990000000    -0.482366   
O253     O      0.571490000000     0.505850000000     0.543760000000    -0.49448    
O254     O      0.438880000000     0.462990000000     0.402530000000    -0.635223   
O255     O      0.572580000000     0.448280000000     0.478400000000    -0.635729   
O256     O      0.443980000000     0.520500000000     0.468060000000    -0.467428   
O257     O      0.652470000000     0.452870000000     0.767680000000    -0.16769    
O258     O      0.656390000000     0.499330000000     0.679820000000    -0.162011   
O259     O      0.617760000000     0.392210000000     0.693400000000    -0.273495   
O260     O      0.476250000000     0.355360000000     0.216320000000    -0.175605   
O261     O      0.431070000000     0.359010000000     0.294000000000    -0.160887   
O262     O      0.549900000000     0.410100000000     0.287460000000    -0.256489   
O263     O      0.332340000000     0.641950000000     0.417310000000    -0.184535   
O264     O      0.384930000000     0.748890000000     0.400100000000    -0.161258   
O265     O      0.319120000000     0.700450000000     0.476600000000    -0.262363   
O266     O      0.454700000000     0.231030000000     0.310830000000    -0.165684   
O267     O      0.403970000000     0.135580000000     0.360920000000    -0.145635   
O268     O      0.512180000000     0.173300000000     0.327380000000    -0.257271   
O269     O      0.655440000000     0.939590000000     0.769670000000    -0.172604   
O270     O      0.565190000000     0.914020000000     0.822200000000    -0.162275   
O271     O      0.675560000000     0.992080000000     0.847010000000    -0.244051   
O272     O      0.241030000000     0.930500000000     0.235650000000    -0.178342   
O273     O      0.334090000000     0.002330000000     0.284930000000    -0.178659   
O274     O      0.267040000000     0.900570000000     0.324490000000    -0.284641   
O275     O      0.596810000000     0.828200000000     0.819020000000    -0.157104   
O276     O      0.618110000000     0.772240000000     0.893030000000    -0.149454   
O277     O      0.648370000000     0.876990000000     0.899120000000    -0.241196   
O278     O      0.424520000000     0.189320000000     0.879760000000    -0.171402   
O279     O      0.365640000000     0.092590000000     0.926850000000    -0.179704   
O280     O      0.483860000000     0.138750000000     0.918410000000    -0.315899   
O281     O      0.689590000000     0.221600000000     0.325240000000    -0.184018   
O282     O      0.624750000000     0.219020000000     0.392220000000    -0.184071   
O283     O      0.614160000000     0.126160000000     0.367090000000    -0.280667   
O284     O      0.299370000000     0.688470000000     0.649930000000    -0.179855   
O285     O      0.336010000000     0.793840000000     0.629600000000    -0.171689   
O286     O      0.376360000000     0.742870000000     0.582350000000    -0.270442   
O287     O      0.838540000000     0.667220000000     0.393830000000    -0.168812   
O288     O      0.897730000000     0.612090000000     0.401000000000    -0.146159   
O289     O      0.876380000000     0.642800000000     0.479920000000    -0.254406   
O290     O      0.255660000000     0.488340000000     0.368390000000    -0.177632   
O291     O      0.178670000000     0.508840000000     0.403850000000    -0.165181   
O292     O      0.152560000000     0.405020000000     0.397590000000    -0.265485   
O293     O      0.881570000000     0.612110000000     0.699570000000    -0.172703   
O294     O      0.855540000000     0.537280000000     0.640110000000    -0.162624   
O295     O      0.949060000000     0.637500000000     0.625670000000    -0.258951   
O296     O      0.133750000000     0.460300000000     0.271270000000    -0.164222   
O297     O      0.125520000000     0.487190000000     0.178980000000    -0.147537   
O298     O      0.092500000000     0.383540000000     0.210060000000    -0.269407   
O299     O      0.809920000000     0.213530000000     0.071660000000    -0.192525   
O300     O      0.734110000000     0.116110000000     0.043990000000    -0.185274   
O301     O      0.697280000000     0.189000000000     0.050360000000    -0.280424   
O302     O      0.238370000000     0.653580000000     0.187870000000    -0.169215   
O303     O      0.241640000000     0.627980000000     0.102300000000    -0.156574   
O304     O      0.136740000000     0.588610000000     0.141410000000    -0.255123   
O305     O      0.737410000000     0.512110000000     0.846100000000    -0.174207   
O306     O      0.777180000000     0.584760000000     0.909840000000    -0.185392   
O307     O      0.660730000000     0.526110000000     0.889620000000    -0.271123   
O308     O      0.323820000000     0.655310000000     0.845710000000    -0.18497    
O309     O      0.251830000000     0.659990000000     0.902410000000    -0.173407   
O310     O      0.206110000000     0.601380000000     0.826510000000    -0.266241   
O311     O      0.653030000000     0.756090000000     0.397220000000    -0.185396   
O312     O      0.759640000000     0.764630000000     0.413310000000    -0.178548   
O313     O      0.745490000000     0.852050000000     0.416280000000    -0.293472   
O314     O      0.294790000000     0.199130000000     0.554960000000    -0.17931    
O315     O      0.346470000000     0.304090000000     0.530190000000    -0.17724    
O316     O      0.402970000000     0.247290000000     0.523620000000    -0.264966   
O317     O      0.667390000000     0.936750000000     0.256520000000    -0.183786   
O318     O      0.628730000000     0.991460000000     0.298500000000    -0.15148    
O319     O      0.555930000000     0.885800000000     0.285350000000    -0.269107   
O320     O      0.328940000000     0.117690000000     0.436530000000    -0.182501   
O321     O      0.234780000000     0.103660000000     0.478820000000    -0.174644   
O322     O      0.222810000000     0.034620000000     0.415220000000    -0.263102   
O323     O      0.040140000000     0.781250000000     0.295160000000    -0.178064   
O324     O      0.951290000000     0.734290000000     0.353020000000    -0.140973   
O325     O      0.998370000000     0.676660000000     0.326650000000    -0.259888   
O326     O      0.083970000000     0.264790000000     0.655990000000    -0.181135   
O327     O      0.995940000000     0.286860000000     0.660130000000    -0.17228    
O328     O      0.083640000000     0.348790000000     0.601150000000    -0.290948   
O329     O      0.818250000000     0.810190000000     0.706760000000    -0.178642   
O330     O      0.785800000000     0.829380000000     0.784810000000    -0.149417   
O331     O      0.843370000000     0.771810000000     0.792440000000    -0.260626   
O332     O      0.105760000000     0.194410000000     0.212720000000    -0.171408   
O333     O      0.028060000000     0.130190000000     0.149410000000    -0.156834   
O334     O      0.145370000000     0.172290000000     0.139780000000    -0.255952   
O335     O      0.627840000000     0.803470000000     0.984830000000    -0.17622    
O336     O      0.724180000000     0.837540000000     0.936770000000    -0.162271   
O337     O      0.730580000000     0.880240000000     0.018420000000    -0.27962    
O338     O      0.305770000000     0.159290000000     0.874990000000    -0.171635   
O339     O      0.385590000000     0.264790000000     0.875900000000    -0.166577   
O340     O      0.292650000000     0.232530000000     0.813240000000    -0.273369   
O341     O      0.846880000000     0.082080000000     0.939050000000    -0.194356   
O342     O      0.759130000000     0.093230000000     0.961860000000    -0.16001    
O343     O      0.736700000000     0.997610000000     0.933650000000    -0.254386   
O344     O      0.233220000000     0.995410000000     0.781430000000    -0.185395   
O345     O      0.292620000000     0.945210000000     0.820220000000    -0.168097   
O346     O      0.326300000000     0.047430000000     0.840920000000    -0.260902   
O347     O      0.851500000000     0.660250000000     0.127730000000    -0.180316   
O348     O      0.924570000000     0.620180000000     0.125480000000    -0.162809   
O349     O      0.820840000000     0.578900000000     0.073280000000    -0.254841   
O350     O      0.104750000000     0.262650000000     0.097970000000    -0.161071   
O351     O      0.026110000000     0.297160000000     0.094030000000    -0.158888   
O352     O      0.134120000000     0.363100000000     0.058980000000    -0.278264   
S1       S      0.618820000000     0.444590000000     0.714720000000     0.284275   
S2       S      0.485060000000     0.393860000000     0.258080000000     0.289873   
S3       S      0.365890000000     0.699310000000     0.442330000000     0.292682   
S4       S      0.467430000000     0.189840000000     0.349970000000     0.289448   
S5       S      0.627170000000     0.964040000000     0.802160000000     0.289691   
S6       S      0.295420000000     0.938200000000     0.274660000000     0.284304   
S7       S      0.598610000000     0.819050000000     0.877070000000     0.308385   
S8       S      0.428210000000     0.149770000000     0.925690000000     0.284434   
S9       S      0.660710000000     0.190640000000     0.376000000000     0.286698   
S10      S      0.318530000000     0.737210000000     0.606960000000     0.287645   
S11      S      0.849800000000     0.620850000000     0.426380000000     0.285059   
S12      S      0.206000000000     0.467240000000     0.408010000000     0.292712   
S13      S      0.909910000000     0.588500000000     0.666310000000     0.285546   
S14      S      0.093760000000     0.440010000000     0.221760000000     0.287963   
S15      S      0.752120000000     0.180190000000     0.035940000000     0.281502   
S16      S      0.203870000000     0.641900000000     0.135320000000     0.28518    
S17      S      0.724300000000     0.524500000000     0.896900000000     0.281124   
S18      S      0.259460000000     0.620650000000     0.869540000000     0.286134   
S19      S      0.715870000000     0.785650000000     0.428610000000     0.275228   
S20      S      0.338440000000     0.246550000000     0.516620000000     0.295903   
S21      S      0.625490000000     0.932470000000     0.297710000000     0.282809   
S22      S      0.265640000000     0.072990000000     0.458310000000     0.289506   
S23      S      0.012980000000     0.737120000000     0.340960000000     0.293153   
S24      S      0.041370000000     0.286210000000     0.624900000000     0.27889    
S25      S      0.837590000000     0.823340000000     0.762420000000     0.287334   
S26      S      0.092230000000     0.147210000000     0.178090000000     0.292441   
S27      S      0.698940000000     0.824300000000     0.989830000000     0.292813   
S28      S      0.315290000000     0.221170000000     0.868360000000     0.285557   
S29      S      0.783270000000     0.050480000000     0.963980000000     0.28859    
S30      S      0.269420000000     0.987180000000     0.829930000000     0.288865   
S31      S      0.877040000000     0.634960000000     0.093590000000     0.287907   
S32      S      0.079250000000     0.299700000000     0.065890000000     0.285109   
Zr1      Zr     0.104070000000     0.024240000000     0.954670000000     1.40577    
Zr2      Zr     0.963410000000     0.036140000000     0.912570000000     1.37451    
Zr3      Zr     0.032370000000     0.933660000000     0.068970000000     1.37467    
Zr4      Zr     0.889810000000     0.944380000000     0.026680000000     1.40955    
Zr5      Zr     0.034140000000     0.069080000000     0.035310000000     1.38325    
Zr6      Zr     0.954750000000     0.897460000000     0.946660000000     1.3584     
Zr7      Zr     0.920150000000     0.879790000000     0.471520000000     1.41265    
Zr8      Zr     0.926490000000     0.006730000000     0.394710000000     1.37835    
Zr9      Zr     0.033670000000     0.971060000000     0.566360000000     1.37713    
Zr10     Zr     0.037370000000     0.096230000000     0.489670000000     1.38586    
Zr11     Zr     0.066970000000     0.995530000000     0.435900000000     1.36805    
Zr12     Zr     0.891240000000     0.978140000000     0.525100000000     1.35566    
Zr13     Zr     0.007630000000     0.421690000000     0.052460000000     1.40695    
Zr14     Zr     0.862200000000     0.405340000000     0.986760000000     1.38073    
Zr15     Zr     0.095190000000     0.564880000000     0.982640000000     1.41422    
Zr16     Zr     0.949050000000     0.548680000000     0.918240000000     1.39171    
Zr17     Zr     0.993210000000     0.439110000000     0.919250000000     1.36396    
Zr18     Zr     0.964530000000     0.532340000000     0.051750000000     1.36604    
Zr19     Zr     0.958560000000     0.419310000000     0.574700000000     1.38348    
Zr20     Zr     0.876930000000     0.435130000000     0.452800000000     1.38224    
Zr21     Zr     0.105750000000     0.534900000000     0.526440000000     1.41217    
Zr22     Zr     0.025020000000     0.550750000000     0.403550000000     1.37042    
Zr23     Zr     0.008730000000     0.411960000000     0.458620000000     1.36279    
Zr24     Zr     0.973340000000     0.555970000000     0.519290000000     1.38372    
Zr25     Zr     0.439450000000     0.986110000000     0.903960000000     1.4018     
Zr26     Zr     0.433350000000     0.866780000000     0.990420000000     1.33422    
Zr27     Zr     0.547410000000     0.085320000000     0.000450000000     1.42174    
Zr28     Zr     0.544960000000     0.964750000000     0.080480000000     1.36963    
Zr29     Zr     0.400150000000     0.968620000000     0.033500000000     1.35013    
Zr30     Zr     0.582660000000     0.989260000000     0.949820000000     1.37461    
Zr31     Zr     0.438090000000     0.013520000000     0.407900000000     1.39131    
Zr32     Zr     0.369190000000     0.923250000000     0.524050000000     1.37733    
Zr33     Zr     0.585340000000     0.006050000000     0.448310000000     1.41567    
Zr34     Zr     0.515510000000     0.916030000000     0.563370000000     1.38251    
Zr35     Zr     0.516720000000     0.050930000000     0.529120000000     1.35598    
Zr36     Zr     0.438820000000     0.881220000000     0.441840000000     1.38255    
Zr37     Zr     0.444710000000     0.404760000000     0.061740000000     1.38783    
Zr38     Zr     0.352330000000     0.437430000000     0.956310000000     1.39958    
Zr39     Zr     0.587250000000     0.520060000000     0.005580000000     1.41257    
Zr40     Zr     0.493660000000     0.548610000000     0.898910000000     1.39655    
Zr41     Zr     0.471590000000     0.405570000000     0.935600000000     1.37032    
Zr42     Zr     0.466440000000     0.548730000000     0.026640000000     1.36733    
Zr43     Zr     0.514810000000     0.411250000000     0.544280000000     1.41129    
Zr44     Zr     0.385020000000     0.426770000000     0.470960000000     1.38674    
Zr45     Zr     0.627230000000     0.543040000000     0.476730000000     1.38188    
Zr46     Zr     0.499380000000     0.558280000000     0.402040000000     1.39605    
Zr47     Zr     0.504950000000     0.427970000000     0.411060000000     1.40335    
Zr48     Zr     0.504650000000     0.540120000000     0.538360000000     1.36859    


