data_structure

_audit_creation_method RASPA-1.0
_audit_creation_date 2023-5-9
_audit_author_name 'Poobodin Mano'

_cell_length_a    43.3805
_cell_length_b    43.7613
_cell_length_c    42.5766
_cell_angle_alpha 90
_cell_angle_beta  90
_cell_angle_gamma 90
_cell_volume      80826.9

_symmetry_cell_setting          triclinic
_symmetry_space_group_name_Hall 'P 1'
_symmetry_space_group_name_H-M  'P 1'
_symmetry_Int_Tables_number     1

_symmetry_equiv_pos_as_xyz 'x,y,z'

loop_
_atom_site_label
_atom_site_type_symbol
_atom_site_fract_x
_atom_site_fract_y
_atom_site_fract_z
_atom_site_charge
C1       C      0.465180000000     0.021560000000     0.199420000000     0.39397    
C2       C      0.499240000000     0.079060000000     0.381740000000     0.391006   
C3       C      0.515200000000     0.111120000000     0.223260000000     0.395992   
C4       C      0.449240000000     0.991890000000     0.358510000000     0.392575   
C5       C      0.035290000000     0.439600000000     0.356160000000     0.389858   
C6       C      0.109700000000     0.555660000000     0.220270000000     0.391778   
C7       C      0.091710000000     0.533290000000     0.381360000000     0.39007    
C8       C      0.051910000000     0.471040000000     0.196250000000     0.387295   
C9       C      0.540250000000     0.198130000000     0.123370000000     0.39518    
C10      C      0.435500000000     0.333720000000     0.031590000000     0.39181    
C11      C      0.464050000000     0.176570000000     0.043220000000     0.381512   
C12      C      0.514960000000     0.353490000000     0.110400000000     0.393702   
C13      C      0.085500000000     0.362670000000     0.534970000000     0.392125   
C14      C      0.038580000000     0.186990000000     0.470820000000     0.39085    
C15      C      0.007570000000     0.343160000000     0.456880000000     0.391295   
C16      C      0.113100000000     0.207630000000     0.541410000000     0.398679   
C17      C      0.371940000000     0.069650000000     0.047560000000     0.390448   
C18      C      0.204930000000     0.005020000000     0.118770000000     0.385689   
C19      C      0.359050000000     0.971830000000     0.087340000000     0.394706   
C20      C      0.219960000000     0.099270000000     0.082960000000     0.39426    
C21      C      0.189830000000     0.563310000000     0.476150000000     0.387233   
C22      C      0.328420000000     0.432730000000     0.488600000000     0.391653   
C23      C      0.175410000000     0.472280000000     0.517830000000     0.392243   
C24      C      0.342850000000     0.526290000000     0.443650000000     0.395026   
C25      C      0.376590000000     0.402050000000     0.485830000000     0.0200328  
C26      C      0.383090000000     0.401850000000     0.021800000000    -0.108868   
C27      C      0.413500000000     0.385830000000     0.029970000000     0.0162182  
C28      C      0.429470000000     0.072220000000     0.045490000000     0.0172461  
C29      C      0.455410000000     0.094840000000     0.054640000000    -0.106512   
C30      C      0.460750000000     0.120820000000     0.030590000000     0.0161446  
C31      C      0.141180000000     0.432640000000     0.991770000000     0.0212269  
C32      C      0.105860000000     0.426680000000     0.492110000000    -0.106074   
C33      C      0.092120000000     0.416010000000     0.021230000000     0.0173173  
C34      C      0.173540000000     0.127350000000     0.591110000000     0.0184818  
C35      C      0.171600000000     0.150330000000     0.065010000000    -0.108182   
C36      C      0.138770000000     0.159430000000     0.556010000000     0.0182275  
C37      C      0.351000000000     0.530260000000     0.386200000000     0.01694    
C38      C      0.381020000000     0.017890000000     0.365670000000    -0.10921    
C39      C      0.393400000000     0.984810000000     0.368870000000     0.0249378  
C40      C      0.097630000000     0.530450000000     0.439330000000     0.0147874  
C41      C      0.122560000000     0.534600000000     0.464780000000    -0.102912   
C42      C      0.132980000000     0.568170000000     0.469380000000     0.0184408  
C43      C      0.155230000000     0.016900000000     0.145770000000     0.0214059  
C44      C      0.157700000000     0.551650000000     0.148910000000    -0.104452   
C45      C      0.130210000000     0.566010000000     0.166350000000     0.0141482  
C46      C      0.389440000000     0.965610000000     0.135830000000     0.0141368  
C47      C      0.413140000000     0.991430000000     0.138090000000    -0.0963835  
C48      C      0.419430000000     0.001330000000     0.171870000000     0.00443787 
C49      C      0.474660000000     0.124530000000     0.406560000000     0.0127042  
C50      C      0.490350000000     0.145070000000     0.430800000000    -0.0995195  
C51      C      0.024770000000     0.157720000000     0.423070000000     0.010757   
C52      C      0.503470000000     0.352480000000     0.397970000000     0.0202357  
C53      C      0.039130000000     0.359670000000     0.389110000000    -0.100813   
C54      C      0.540390000000     0.380070000000     0.360210000000     0.01572    
C55      C      0.564300000000     0.422920000000     0.163640000000     0.0162218  
C56      C      0.061770000000     0.412710000000     0.131890000000    -0.105128   
C57      C      0.525010000000     0.408370000000     0.121060000000     0.0174045  
C58      C      0.007510000000     0.168650000000     0.215030000000     0.0111151  
C59      C      0.511800000000     0.190540000000     0.191960000000    -0.104563   
C60      C      0.049980000000     0.187250000000     0.177840000000     0.0234983  
C61      C      0.463900000000     0.022850000000     0.699830000000     0.394348   
C62      C      0.499190000000     0.081130000000     0.881610000000     0.391199   
C63      C      0.515270000000     0.111540000000     0.722810000000     0.396267   
C64      C      0.447450000000     0.995030000000     0.859140000000     0.392122   
C65      C      0.036020000000     0.438340000000     0.854980000000     0.389365   
C66      C      0.111420000000     0.556740000000     0.721540000000     0.390837   
C67      C      0.092510000000     0.531990000000     0.882270000000     0.389263   
C68      C      0.053570000000     0.472700000000     0.695770000000     0.38769    
C69      C      0.540840000000     0.196660000000     0.622170000000     0.395241   
C70      C      0.434860000000     0.331820000000     0.530970000000     0.391393   
C71      C      0.464150000000     0.174630000000     0.542220000000     0.381106   
C72      C      0.515010000000     0.351870000000     0.609440000000     0.393151   
C73      C      0.086070000000     0.360250000000     0.032010000000     0.392183   
C74      C      0.038550000000     0.185000000000     0.968040000000     0.391327   
C75      C      0.007830000000     0.341230000000     0.955090000000     0.390507   
C76      C      0.113600000000     0.205130000000     0.037990000000     0.398964   
C77      C      0.373360000000     0.066930000000     0.547010000000     0.39058    
C78      C      0.205570000000     0.005620000000     0.619280000000     0.384975   
C79      C      0.359410000000     0.969770000000     0.589060000000     0.394586   
C80      C      0.221500000000     0.098800000000     0.580770000000     0.394955   
C81      C      0.188960000000     0.563020000000     0.976640000000     0.388974   
C82      C      0.328940000000     0.433840000000     0.988910000000     0.391826   
C83      C      0.175200000000     0.471270000000     0.016880000000     0.392433   
C84      C      0.342720000000     0.527780000000     0.945230000000     0.394938   
C85      C      0.377600000000     0.403920000000     0.986110000000     0.0214164  
C86      C      0.382150000000     0.399780000000     0.521490000000    -0.107563   
C87      C      0.412650000000     0.383850000000     0.529500000000     0.0158413  
C88      C      0.430940000000     0.069770000000     0.544570000000     0.0172529  
C89      C      0.456700000000     0.092840000000     0.553150000000    -0.106446   
C90      C      0.460990000000     0.118980000000     0.529040000000     0.0160352  
C91      C      0.140640000000     0.433810000000     0.493530000000     0.0185299  
C92      C      0.106530000000     0.425180000000     0.989570000000    -0.105996   
C93      C      0.091880000000     0.418420000000     0.524220000000     0.0182166  
C94      C      0.172110000000     0.127830000000     0.092360000000     0.0188134  
C95      C      0.171800000000     0.151240000000     0.565120000000    -0.108388   
C96      C      0.139090000000     0.157120000000     0.053250000000     0.018152   
C97      C      0.351450000000     0.531660000000     0.887840000000     0.0166523  
C98      C      0.379530000000     0.022260000000     0.865480000000    -0.10909    
C99      C      0.391450000000     0.989070000000     0.869440000000     0.0248947  
C100     C      0.097790000000     0.528960000000     0.940240000000     0.0149591  
C101     C      0.122140000000     0.534000000000     0.966070000000    -0.102903   
C102     C      0.132150000000     0.567780000000     0.969890000000     0.0190636  
C103     C      0.155830000000     0.018360000000     0.645930000000     0.02088    
C104     C      0.159820000000     0.553610000000     0.650340000000    -0.104555   
C105     C      0.132250000000     0.567750000000     0.667870000000     0.0143373  
C106     C      0.389460000000     0.964760000000     0.637800000000     0.0143241  
C107     C      0.412570000000     0.991150000000     0.639210000000    -0.096269   
C108     C      0.417960000000     0.002750000000     0.672570000000     0.00434837 
C109     C      0.475370000000     0.127200000000     0.906040000000     0.0126874  
C110     C      0.490780000000     0.147470000000     0.930700000000    -0.0998347  
C111     C      0.023040000000     0.155800000000     0.920950000000     0.0108945  
C112     C      0.505330000000     0.354340000000     0.899090000000     0.0183079  
C113     C      0.039000000000     0.357960000000     0.886980000000    -0.100575   
C114     C      0.543020000000     0.382020000000     0.862270000000     0.0150198  
C115     C      0.562620000000     0.421850000000     0.665020000000     0.0163833  
C116     C      0.060970000000     0.415200000000     0.630630000000    -0.104558   
C117     C      0.525570000000     0.406660000000     0.620470000000     0.0169513  
C118     C      0.005450000000     0.170000000000     0.716940000000     0.011196   
C119     C      0.513610000000     0.190710000000     0.691000000000    -0.104232   
C120     C      0.047970000000     0.190150000000     0.680700000000     0.0235867  
C121     C      0.462600000000     0.524460000000     0.197360000000     0.395318   
C122     C      0.498050000000     0.580570000000     0.380810000000     0.391836   
C123     C      0.515450000000     0.612700000000     0.222460000000     0.396313   
C124     C      0.443820000000     0.494730000000     0.356050000000     0.392385   
C125     C      0.037110000000     0.938410000000     0.356000000000     0.38956    
C126     C      0.110700000000     0.055390000000     0.219970000000     0.391439   
C127     C      0.093950000000     0.031770000000     0.380980000000     0.390319   
C128     C      0.053200000000     0.970400000000     0.196090000000     0.387536   
C129     C      0.542590000000     0.697550000000     0.122190000000     0.395374   
C130     C      0.436830000000     0.834390000000     0.033570000000     0.391959   
C131     C      0.463990000000     0.676940000000     0.043870000000     0.381073   
C132     C      0.518770000000     0.853130000000     0.110490000000     0.393301   
C133     C      0.086920000000     0.862220000000     0.534430000000     0.392902   
C134     C      0.039820000000     0.685580000000     0.472680000000     0.390993   
C135     C      0.009180000000     0.841670000000     0.456980000000     0.390276   
C136     C      0.115220000000     0.707510000000     0.542110000000     0.399991   
C137     C      0.370710000000     0.569790000000     0.046480000000     0.390328   
C138     C      0.204400000000     0.504810000000     0.118800000000     0.391299   
C139     C      0.358350000000     0.471930000000     0.085790000000     0.39491    
C140     C      0.219090000000     0.598960000000     0.083460000000     0.394376   
C141     C      0.192640000000     0.060440000000     0.475340000000     0.387804   
C142     C      0.331180000000     0.929420000000     0.493730000000     0.390058   
C143     C      0.177160000000     0.969860000000     0.517440000000     0.392528   
C144     C      0.346070000000     0.022250000000     0.446650000000     0.394243   
C145     C      0.379970000000     0.899440000000     0.489950000000     0.0195983  
C146     C      0.385000000000     0.902820000000     0.023610000000    -0.108806   
C147     C      0.415250000000     0.886690000000     0.032110000000     0.016209   
C148     C      0.428280000000     0.572490000000     0.044460000000     0.0170399  
C149     C      0.454130000000     0.594960000000     0.054320000000    -0.106519   
C150     C      0.459760000000     0.621350000000     0.030790000000     0.0158654  
C151     C      0.142760000000     0.932320000000     0.991850000000     0.0214367  
C152     C      0.107980000000     0.924820000000     0.489870000000    -0.106311   
C153     C      0.093480000000     0.915610000000     0.020890000000     0.0171097  
C154     C      0.174550000000     0.628790000000     0.594590000000     0.0184865  
C155     C      0.171200000000     0.650300000000     0.065800000000    -0.107783   
C156     C      0.140830000000     0.659660000000     0.557530000000     0.0182564  
C157     C      0.355420000000     0.025620000000     0.389350000000     0.0176705  
C158     C      0.375760000000     0.521640000000     0.361910000000    -0.103735   
C159     C      0.387710000000     0.488440000000     0.365440000000     0.019867   
C160     C      0.100160000000     0.028620000000     0.438840000000     0.0148905  
C161     C      0.125110000000     0.032950000000     0.464190000000    -0.102795   
C162     C      0.136030000000     0.066470000000     0.467880000000     0.0185355  
C163     C      0.154940000000     0.516640000000     0.146320000000     0.0210539  
C164     C      0.158030000000     0.051920000000     0.148280000000    -0.104553   
C165     C      0.130750000000     0.066310000000     0.166000000000     0.0142426  
C166     C      0.389100000000     0.466560000000     0.134050000000     0.0181857  
C167     C      0.412120000000     0.493040000000     0.135790000000    -0.110607   
C168     C      0.417100000000     0.504500000000     0.169280000000     0.0179557  
C169     C      0.477700000000     0.627570000000     0.406670000000     0.0125782  
C170     C      0.495380000000     0.646210000000     0.431140000000    -0.0995227  
C171     C      0.026330000000     0.656530000000     0.424700000000     0.0113585  
C172     C      0.511430000000     0.851610000000     0.398690000000     0.0200892  
C173     C      0.041050000000     0.858430000000     0.389040000000    -0.100568   
C174     C      0.548620000000     0.880090000000     0.361900000000     0.0155094  
C175     C      0.568370000000     0.922410000000     0.164910000000     0.0164323  
C176     C      0.063010000000     0.912350000000     0.131470000000    -0.105178   
C177     C      0.530010000000     0.907810000000     0.121380000000     0.0168966  
C178     C      0.007180000000     0.669570000000     0.214490000000     0.00879277 
C179     C      0.516450000000     0.692250000000     0.191420000000    -0.104419   
C180     C      0.050140000000     0.687280000000     0.177410000000     0.021307   
C181     C      0.461360000000     0.523060000000     0.698260000000     0.395127   
C182     C      0.496300000000     0.581960000000     0.880110000000     0.391255   
C183     C      0.514780000000     0.612450000000     0.721400000000     0.395502   
C184     C      0.444440000000     0.495650000000     0.857670000000     0.392226   
C185     C      0.037740000000     0.938570000000     0.855060000000     0.389761   
C186     C      0.110940000000     0.056940000000     0.720550000000     0.391488   
C187     C      0.093540000000     0.032600000000     0.881460000000     0.389939   
C188     C      0.054310000000     0.972610000000     0.695640000000     0.394009   
C189     C      0.549810000000     0.694710000000     0.621970000000     0.394565   
C190     C      0.441970000000     0.829060000000     0.532200000000     0.389952   
C191     C      0.473420000000     0.672340000000     0.544390000000     0.380935   
C192     C      0.522400000000     0.849770000000     0.610090000000     0.393245   
C193     C      0.087040000000     0.859850000000     0.031580000000     0.392273   
C194     C      0.038590000000     0.684900000000     0.967610000000     0.39149    
C195     C      0.008840000000     0.841330000000     0.954660000000     0.390621   
C196     C      0.113620000000     0.704570000000     0.037530000000     0.399174   
C197     C      0.372510000000     0.569180000000     0.543400000000     0.389245   
C198     C      0.206040000000     0.506470000000     0.618930000000     0.391223   
C199     C      0.359150000000     0.471220000000     0.584760000000     0.394696   
C200     C      0.221830000000     0.599960000000     0.582970000000     0.394621   
C201     C      0.190810000000     0.062910000000     0.976280000000     0.388828   
C202     C      0.330520000000     0.933570000000     0.990360000000     0.392033   
C203     C      0.176570000000     0.971130000000     0.016930000000     0.392546   
C204     C      0.344770000000     0.027230000000     0.946370000000     0.393965   
C205     C      0.379340000000     0.903890000000     0.987890000000     0.0216042  
C206     C      0.387180000000     0.896060000000     0.525200000000    -0.107119   
C207     C      0.418560000000     0.880740000000     0.531220000000     0.0149412  
C208     C      0.430130000000     0.571920000000     0.539390000000     0.0165341  
C209     C      0.456030000000     0.589250000000     0.557160000000    -0.107153   
C210     C      0.471660000000     0.615490000000     0.538620000000     0.0144983  
C211     C      0.142770000000     0.931740000000     0.491960000000     0.0190733  
C212     C      0.108130000000     0.924830000000     0.989360000000    -0.106036   
C213     C      0.093170000000     0.917550000000     0.521850000000     0.0184701  
C214     C      0.171420000000     0.627670000000     0.093040000000     0.0185163  
C215     C      0.173500000000     0.652630000000     0.568520000000    -0.108012   
C216     C      0.138900000000     0.656600000000     0.053230000000     0.0179024  
C217     C      0.354100000000     0.030890000000     0.889050000000     0.017581   
C218     C      0.376530000000     0.522870000000     0.863940000000    -0.103642   
C219     C      0.388420000000     0.489680000000     0.867870000000     0.0195992  
C220     C      0.099370000000     0.029320000000     0.939360000000     0.0148278  
C221     C      0.124020000000     0.034090000000     0.964940000000    -0.102747   
C222     C      0.134080000000     0.067840000000     0.968980000000     0.0186976  
C223     C      0.156870000000     0.518690000000     0.646880000000     0.0210694  
C224     C      0.158760000000     0.053320000000     0.649010000000    -0.104375   
C225     C      0.131330000000     0.067620000000     0.666630000000     0.0139083  
C226     C      0.389460000000     0.464380000000     0.633170000000     0.0183869  
C227     C      0.411330000000     0.491660000000     0.636030000000    -0.11053    
C228     C      0.416670000000     0.501530000000     0.670010000000     0.0182738  
C229     C      0.472740000000     0.628180000000     0.904500000000     0.0126287  
C230     C      0.488240000000     0.648350000000     0.929200000000    -0.0997584  
C231     C      0.022770000000     0.655700000000     0.920650000000     0.0108312  
C232     C      0.505310000000     0.854920000000     0.899400000000     0.0184178  
C233     C      0.040880000000     0.858220000000     0.887070000000    -0.100566   
C234     C      0.544540000000     0.881140000000     0.863120000000     0.015036   
C235     C      0.566900000000     0.921690000000     0.666480000000     0.0165285  
C236     C      0.062720000000     0.915260000000     0.630480000000    -0.104739   
C237     C      0.531270000000     0.904850000000     0.621370000000     0.0168246  
C238     C      0.008040000000     0.670940000000     0.718090000000     0.00903274 
C239     C      0.520710000000     0.691140000000     0.689430000000    -0.103897   
C240     C      0.051000000000     0.691200000000     0.682440000000     0.0214161  
C241     C      0.963710000000     0.024360000000     0.199390000000     0.393476   
C242     C      0.999810000000     0.083030000000     0.381290000000     0.405655   
C243     C      0.016130000000     0.113310000000     0.222550000000     0.395138   
C244     C      0.947160000000     0.996950000000     0.358810000000     0.398551   
C245     C      0.533450000000     0.435880000000     0.353620000000     0.390863   
C246     C      0.609540000000     0.554040000000     0.220280000000     0.39188    
C247     C      0.590260000000     0.528450000000     0.380760000000     0.391817   
C248     C      0.552020000000     0.469970000000     0.194510000000     0.388732   
C249     C      0.042750000000     0.197830000000     0.121320000000     0.394279   
C250     C      0.936470000000     0.334100000000     0.032350000000     0.391657   
C251     C      0.964850000000     0.176860000000     0.042720000000     0.38114    
C252     C      0.017520000000     0.353280000000     0.109890000000     0.392231   
C253     C      0.584330000000     0.358750000000     0.533210000000     0.392937   
C254     C      0.538530000000     0.182890000000     0.468870000000     0.392172   
C255     C      0.506860000000     0.338890000000     0.454690000000     0.392302   
C256     C      0.612610000000     0.203910000000     0.539590000000     0.400036   
C257     C      0.871890000000     0.069790000000     0.047060000000     0.390255   
C258     C      0.705200000000     0.004890000000     0.118990000000     0.385309   
C259     C      0.859330000000     0.972190000000     0.087220000000     0.395029   
C260     C      0.720000000000     0.098900000000     0.083420000000     0.394171   
C261     C      0.684330000000     0.561700000000     0.473070000000     0.388984   
C262     C      0.827930000000     0.436370000000     0.492010000000     0.391288   
C263     C      0.672890000000     0.470530000000     0.517230000000     0.392385   
C264     C      0.839170000000     0.528850000000     0.443440000000     0.394331   
C265     C      0.877470000000     0.407720000000     0.489700000000     0.0195017  
C266     C      0.884080000000     0.402200000000     0.022840000000    -0.108468   
C267     C      0.914480000000     0.386240000000     0.031120000000     0.0159455  
C268     C      0.929420000000     0.072510000000     0.044770000000     0.0171051  
C269     C      0.955360000000     0.095020000000     0.054260000000    -0.106608   
C270     C      0.961080000000     0.121060000000     0.030360000000     0.0160054  
C271     C      0.641560000000     0.431020000000     0.993130000000     0.0209598  
C272     C      0.605570000000     0.422470000000     0.490220000000    -0.106323   
C273     C      0.591600000000     0.415680000000     0.021930000000     0.0167619  
C274     C      0.671640000000     0.126630000000     0.594130000000     0.0183674  
C275     C      0.671080000000     0.150080000000     0.066950000000    -0.10831    
C276     C      0.638380000000     0.156270000000     0.555530000000     0.0180808  
C277     C      0.849210000000     0.531330000000     0.386070000000     0.0166213  
C278     C      0.879270000000     0.024250000000     0.365270000000    -0.109194   
C279     C      0.891160000000     0.991050000000     0.369140000000     0.0252789  
C280     C      0.594610000000     0.525520000000     0.438680000000     0.015439   
C281     C      0.617840000000     0.532260000000     0.465070000000    -0.102916   
C282     C      0.627540000000     0.566250000000     0.466980000000     0.0197495  
C283     C      0.655730000000     0.017020000000     0.146350000000     0.021205   
C284     C      0.657690000000     0.551590000000     0.149020000000    -0.104236   
C285     C      0.630250000000     0.565690000000     0.166740000000     0.0141159  
C286     C      0.889650000000     0.966670000000     0.135810000000     0.0142918  
C287     C      0.912590000000     0.993160000000     0.137980000000    -0.0964563  
C288     C      0.918230000000     0.003700000000     0.171700000000     0.00457258 
C289     C      0.976250000000     0.129240000000     0.405710000000     0.0121244  
C290     C      0.991080000000     0.149470000000     0.430800000000    -0.0937698  
C291     C      0.523780000000     0.153220000000     0.421790000000     0.0166105  
C292     C      0.005350000000     0.356950000000     0.400220000000     0.005488   
C293     C      0.536850000000     0.355420000000     0.385680000000    -0.105087   
C294     C      0.043620000000     0.384100000000     0.363590000000     0.0135094  
C295     C      0.064570000000     0.423600000000     0.166280000000     0.0163225  
C296     C      0.559340000000     0.412480000000     0.129390000000    -0.1045     
C297     C      0.028090000000     0.408020000000     0.121300000000     0.0169127  
C298     C      0.503160000000     0.165890000000     0.215940000000     0.0171685  
C299     C      0.017050000000     0.192560000000     0.190640000000    -0.109598   
C300     C      0.545330000000     0.187500000000     0.180130000000     0.0227828  
C301     C      0.964150000000     0.025670000000     0.699240000000     0.393884   
C302     C      0.998180000000     0.082110000000     0.881860000000     0.405353   
C303     C      0.015410000000     0.114780000000     0.723700000000     0.395008   
C304     C      0.947260000000     0.996310000000     0.858250000000     0.392152   
C305     C      0.534990000000     0.437610000000     0.855140000000     0.390773   
C306     C      0.607770000000     0.555470000000     0.719380000000     0.392668   
C307     C      0.590870000000     0.531730000000     0.880350000000     0.390545   
C308     C      0.550870000000     0.469380000000     0.695290000000     0.387977   
C309     C      0.041430000000     0.200590000000     0.624060000000     0.394405   
C310     C      0.935920000000     0.336690000000     0.533680000000     0.390337   
C311     C      0.964250000000     0.179250000000     0.544670000000     0.380982   
C312     C      0.016360000000     0.356030000000     0.611580000000     0.392424   
C313     C      0.585070000000     0.360150000000     0.033790000000     0.39184    
C314     C      0.538730000000     0.184410000000     0.970050000000     0.394721   
C315     C      0.507730000000     0.340600000000     0.955790000000     0.392925   
C316     C      0.612740000000     0.205220000000     0.040840000000     0.400574   
C317     C      0.871870000000     0.071150000000     0.547590000000     0.390001   
C318     C      0.705600000000     0.004440000000     0.618840000000     0.385456   
C319     C      0.860080000000     0.973100000000     0.587120000000     0.394857   
C320     C      0.719780000000     0.098730000000     0.583920000000     0.394547   
C321     C      0.689200000000     0.561770000000     0.975600000000     0.388806   
C322     C      0.829520000000     0.433190000000     0.989750000000     0.392252   
C323     C      0.675550000000     0.470330000000     0.017220000000     0.39226    
C324     C      0.843230000000     0.526960000000     0.945160000000     0.39483    
C325     C      0.878360000000     0.403570000000     0.987140000000     0.0213855  
C326     C      0.883350000000     0.405050000000     0.525270000000    -0.106348   
C327     C      0.913910000000     0.388900000000     0.532820000000     0.0147096  
C328     C      0.929410000000     0.074510000000     0.545640000000     0.017024   
C329     C      0.954990000000     0.097270000000     0.555540000000    -0.106409   
C330     C      0.960630000000     0.123540000000     0.531870000000     0.0157584  
C331     C      0.640100000000     0.430420000000     0.492890000000     0.0187168  
C332     C      0.606850000000     0.423910000000     0.990400000000    -0.105695   
C333     C      0.590620000000     0.414380000000     0.521920000000     0.018119   
C334     C      0.672090000000     0.127110000000     0.093840000000     0.018755   
C335     C      0.670840000000     0.150060000000     0.567650000000    -0.10785    
C336     C      0.638350000000     0.157290000000     0.056150000000     0.0185081  
C337     C      0.852410000000     0.531350000000     0.887860000000     0.0167723  
C338     C      0.879200000000     0.023260000000     0.865090000000    -0.109225   
C339     C      0.891260000000     0.990070000000     0.868420000000     0.0250497  
C340     C      0.597090000000     0.528610000000     0.938260000000     0.0147241  
C341     C      0.622150000000     0.532750000000     0.963590000000    -0.102858   
C342     C      0.632380000000     0.566360000000     0.968310000000     0.0184744  
C343     C      0.655880000000     0.015850000000     0.646080000000     0.0211964  
C344     C      0.653930000000     0.553340000000     0.647240000000    -0.104518   
C345     C      0.627040000000     0.567620000000     0.665530000000     0.014426   
C346     C      0.890490000000     0.967760000000     0.635640000000     0.0143315  
C347     C      0.913390000000     0.994300000000     0.637730000000    -0.0965093  
C348     C      0.918740000000     0.005120000000     0.671390000000     0.00464031 
C349     C      0.973430000000     0.127540000000     0.906540000000     0.0125511  
C350     C      0.989580000000     0.148190000000     0.930350000000    -0.0935244  
C351     C      0.524540000000     0.155060000000     0.922550000000     0.0170558  
C352     C      0.005330000000     0.355350000000     0.898480000000     0.0049648  
C353     C      0.538990000000     0.357430000000     0.887680000000    -0.104023   
C354     C      0.043380000000     0.382570000000     0.861610000000     0.0135988  
C355     C      0.066010000000     0.425750000000     0.664850000000     0.0160376  
C356     C      0.559410000000     0.411110000000     0.630640000000    -0.105061   
C357     C      0.026650000000     0.410910000000     0.622290000000     0.0173721  
C358     C      0.504300000000     0.166460000000     0.715130000000     0.0172194  
C359     C      0.014790000000     0.194540000000     0.693140000000    -0.109763   
C360     C      0.546900000000     0.186450000000     0.678860000000     0.0229116  
C361     C      0.962700000000     0.525240000000     0.198830000000     0.394697   
C362     C      0.998290000000     0.584310000000     0.381000000000     0.406301   
C363     C      0.015230000000     0.614180000000     0.222170000000     0.395093   
C364     C      0.944840000000     0.498310000000     0.358080000000     0.391379   
C365     C      0.540330000000     0.935720000000     0.355240000000     0.390442   
C366     C      0.611530000000     0.055330000000     0.220490000000     0.391484   
C367     C      0.594690000000     0.030790000000     0.381420000000     0.390442   
C368     C      0.556000000000     0.969450000000     0.195740000000     0.388142   
C369     C      0.042860000000     0.697740000000     0.120890000000     0.39475    
C370     C      0.937260000000     0.834510000000     0.032030000000     0.391685   
C371     C      0.964740000000     0.677120000000     0.042300000000     0.380749   
C372     C      0.018390000000     0.853260000000     0.109440000000     0.392231   
C373     C      0.591150000000     0.858010000000     0.532800000000     0.392361   
C374     C      0.545580000000     0.681300000000     0.468490000000     0.391301   
C375     C      0.513910000000     0.837440000000     0.455320000000     0.39189    
C376     C      0.622290000000     0.703580000000     0.537960000000     0.396978   
C377     C      0.870770000000     0.569950000000     0.045620000000     0.390091   
C378     C      0.704420000000     0.504840000000     0.118460000000     0.39151    
C379     C      0.858610000000     0.472560000000     0.086510000000     0.394904   
C380     C      0.719020000000     0.598870000000     0.082360000000     0.394334   
C381     C      0.690820000000     0.062960000000     0.476630000000     0.387553   
C382     C      0.831620000000     0.934770000000     0.489790000000     0.391959   
C383     C      0.677440000000     0.970660000000     0.516880000000     0.392477   
C384     C      0.844970000000     0.028810000000     0.446360000000     0.393983   
C385     C      0.880420000000     0.905080000000     0.487910000000     0.0200663  
C386     C      0.885260000000     0.902890000000     0.022710000000    -0.10844    
C387     C      0.915590000000     0.886760000000     0.030890000000     0.0160225  
C388     C      0.928330000000     0.572820000000     0.043450000000     0.0168087  
C389     C      0.954170000000     0.595180000000     0.053640000000    -0.106445   
C390     C      0.960600000000     0.621310000000     0.030010000000     0.0156535  
C391     C      0.642750000000     0.931880000000     0.992460000000     0.0213544  
C392     C      0.609530000000     0.923120000000     0.490450000000    -0.10636    
C393     C      0.593320000000     0.915100000000     0.021290000000     0.0168877  
C394     C      0.661650000000     0.623770000000     0.595920000000     0.015092   
C395     C      0.670650000000     0.649550000000     0.064360000000    -0.107914   
C396     C      0.648150000000     0.653960000000     0.546810000000     0.0215967  
C397     C      0.854030000000     0.032910000000     0.389030000000     0.0177207  
C398     C      0.875610000000     0.523620000000     0.363230000000    -0.104056   
C399     C      0.888820000000     0.490990000000     0.367770000000     0.0195997  
C400     C      0.600370000000     0.027770000000     0.439320000000     0.0146994  
C401     C      0.624770000000     0.033040000000     0.465030000000    -0.102584   
C402     C      0.634060000000     0.066990000000     0.469180000000     0.018665   
C403     C      0.654850000000     0.516630000000     0.145780000000     0.0208262  
C404     C      0.658820000000     0.052000000000     0.148980000000    -0.10453    
C405     C      0.631580000000     0.066610000000     0.166580000000     0.0141732  
C406     C      0.889000000000     0.467310000000     0.135110000000     0.0182505  
C407     C      0.911920000000     0.493820000000     0.137250000000    -0.110716   
C408     C      0.917390000000     0.504520000000     0.170940000000     0.0183626  
C409     C      0.976640000000     0.631270000000     0.405720000000     0.0124898  
C410     C      0.991990000000     0.650340000000     0.431420000000    -0.0941187  
C411     C      0.529150000000     0.652120000000     0.421640000000     0.0167566  
C412     C      0.007320000000     0.855170000000     0.400160000000     0.00482918 
C413     C      0.545020000000     0.855320000000     0.387230000000    -0.104967   
C414     C      0.045160000000     0.882830000000     0.363390000000     0.0134732  
C415     C      0.065890000000     0.923100000000     0.165890000000     0.0165997  
C416     C      0.564150000000     0.911920000000     0.130570000000    -0.104787   
C417     C      0.029300000000     0.907920000000     0.120880000000     0.0169869  
C418     C      0.506660000000     0.668080000000     0.215440000000     0.0173381  
C419     C      0.017300000000     0.693280000000     0.190150000000    -0.101081   
C420     C      0.549420000000     0.687050000000     0.178740000000     0.0229917  
C421     C      0.964250000000     0.527880000000     0.699160000000     0.395269   
C422     C      0.997760000000     0.582130000000     0.882120000000     0.405547   
C423     C      0.017110000000     0.615540000000     0.724400000000     0.394807   
C424     C      0.946180000000     0.496810000000     0.857680000000     0.391976   
C425     C      0.537700000000     0.936910000000     0.856220000000     0.390755   
C426     C      0.610830000000     0.054220000000     0.720410000000     0.391567   
C427     C      0.593800000000     0.031180000000     0.881560000000     0.390543   
C428     C      0.553880000000     0.969010000000     0.696500000000     0.388322   
C429     C      0.044490000000     0.701110000000     0.625690000000     0.39427    
C430     C      0.937490000000     0.835400000000     0.534230000000     0.391939   
C431     C      0.966740000000     0.678610000000     0.549530000000     0.382817   
C432     C      0.018040000000     0.856170000000     0.611490000000     0.392763   
C433     C      0.586680000000     0.859360000000     0.032090000000     0.392078   
C434     C      0.536950000000     0.684330000000     0.968880000000     0.394668   
C435     C      0.507710000000     0.840940000000     0.956000000000     0.392805   
C436     C      0.612750000000     0.703980000000     0.037420000000     0.400873   
C437     C      0.864930000000     0.576430000000     0.542210000000     0.390293   
C438     C      0.700930000000     0.507540000000     0.617370000000     0.392935   
C439     C      0.855910000000     0.480030000000     0.586510000000     0.394002   
C440     C      0.711310000000     0.603410000000     0.575180000000     0.393472   
C441     C      0.690610000000     0.062700000000     0.976430000000     0.389141   
C442     C      0.830470000000     0.933630000000     0.989990000000     0.392327   
C443     C      0.676560000000     0.970820000000     0.017320000000     0.392517   
C444     C      0.844500000000     0.027270000000     0.946120000000     0.393927   
C445     C      0.879340000000     0.904090000000     0.987040000000     0.0215034  
C446     C      0.885190000000     0.903390000000     0.523730000000    -0.107142   
C447     C      0.915410000000     0.887460000000     0.532700000000     0.0156745  
C448     C      0.922580000000     0.580500000000     0.540940000000     0.0167779  
C449     C      0.946050000000     0.595750000000     0.563470000000    -0.107333   
C450     C      0.965470000000     0.621770000000     0.548870000000     0.0147116  
C451     C      0.644010000000     0.931550000000     0.491760000000     0.0189704  
C452     C      0.608110000000     0.924440000000     0.989860000000    -0.106054   
C453     C      0.596140000000     0.913980000000     0.522560000000     0.0182894  
C454     C      0.671190000000     0.627320000000     0.091940000000     0.0186332  
C455     C      0.646020000000     0.652290000000     0.582870000000    -0.103284   
C456     C      0.638180000000     0.655820000000     0.052220000000     0.0181653  
C457     C      0.853710000000     0.031360000000     0.888800000000     0.0175977  
C458     C      0.877900000000     0.523460000000     0.864080000000    -0.103929   
C459     C      0.890100000000     0.490310000000     0.867260000000     0.0197883  
C460     C      0.599620000000     0.028300000000     0.939460000000     0.0147722  
C461     C      0.624180000000     0.033350000000     0.965070000000    -0.102637   
C462     C      0.633870000000     0.067200000000     0.969080000000     0.0187238  
C463     C      0.651220000000     0.518350000000     0.644700000000     0.0211966  
C464     C      0.658410000000     0.050870000000     0.648770000000    -0.104628   
C465     C      0.630930000000     0.064990000000     0.666430000000     0.014158   
C466     C      0.886560000000     0.475350000000     0.635180000000     0.0175555  
C467     C      0.911520000000     0.499970000000     0.637480000000    -0.110807   
C468     C      0.917690000000     0.510040000000     0.671240000000     0.017951   
C469     C      0.972940000000     0.627590000000     0.906680000000     0.0125182  
C470     C      0.989340000000     0.648250000000     0.930290000000    -0.0933392  
C471     C      0.522100000000     0.655620000000     0.921130000000     0.0171116  
C472     C      0.007060000000     0.855600000000     0.898080000000     0.00520493 
C473     C      0.539170000000     0.856540000000     0.888260000000    -0.103777   
C474     C      0.045620000000     0.882880000000     0.861800000000     0.0135294  
C475     C      0.067370000000     0.925790000000     0.664760000000     0.0166071  
C476     C      0.564710000000     0.910750000000     0.632070000000    -0.105208   
C477     C      0.028480000000     0.911080000000     0.621700000000     0.0172435  
C478     C      0.508420000000     0.668080000000     0.713420000000     0.0167674  
C479     C      0.017740000000     0.695660000000     0.694630000000    -0.101474   
C480     C      0.554080000000     0.684110000000     0.678780000000     0.0230965  
H1       H      0.468310000000     0.048680000000     0.333960000000     0.206853   
H2       H      0.068570000000     0.091300000000     0.258480000000     0.202859   
H3       H      0.079910000000     0.484550000000     0.332620000000     0.207553   
H4       H      0.496900000000     0.478950000000     0.226900000000     0.204222   
H5       H      0.059500000000     0.129920000000     0.322990000000     0.129803   
H6       H      0.117630000000     0.104000000000     0.308980000000     0.184462   
H7       H      0.150480000000     0.519960000000     0.304170000000     0.140054   
H8       H      0.099610000000     0.433330000000     0.298030000000     0.199421   
H9       H      0.498030000000     0.418790000000     0.257000000000     0.124185   
H10      H      0.439680000000     0.449210000000     0.260360000000     0.184163   
H11      H      0.426990000000     0.055440000000     0.265400000000     0.147938   
H12      H      0.464590000000     0.132010000000     0.298220000000     0.202807   
H13      H      0.106770000000     0.447820000000     0.262400000000     0.208917   
H14      H      0.409260000000     0.471840000000     0.267050000000     0.202219   
H15      H      0.447030000000     0.098800000000     0.305880000000     0.19331    
H16      H      0.146980000000     0.079390000000     0.312390000000     0.194381   
H17      H      0.469850000000     0.307690000000     0.084620000000     0.208453   
H18      H      0.484450000000     0.210320000000     0.494530000000     0.202761   
H19      H      0.062230000000     0.318660000000     0.486960000000     0.208813   
H20      H      0.081920000000     0.237050000000     0.087940000000     0.203435   
H21      H      0.423830000000     0.240980000000     0.485920000000     0.124965   
H22      H      0.468050000000     0.243320000000     0.432680000000     0.183663   
H23      H      0.077840000000     0.252520000000     0.442500000000     0.146993   
H24      H      0.124910000000     0.271990000000     0.480950000000     0.203001   
H25      H      0.124800000000     0.287650000000     0.090800000000     0.124562   
H26      H      0.081740000000     0.288950000000     0.143980000000     0.185653   
H27      H      0.489430000000     0.264000000000     0.159170000000     0.139947   
H28      H      0.427990000000     0.237880000000     0.098670000000     0.208236   
H29      H      0.125740000000     0.309720000000     0.487130000000     0.197521   
H30      H      0.052580000000     0.280750000000     0.168320000000     0.193976   
H31      H      0.416310000000     0.273630000000     0.091360000000     0.199326   
H32      H      0.495440000000     0.255880000000     0.408170000000     0.201786   
H33      H      0.250610000000     0.048750000000     0.103600000000     0.211103   
H34      H      0.308760000000     0.446950000000     0.048810000000     0.201081   
H35      H      0.215340000000     0.506190000000     0.478880000000     0.209166   
H36      H      0.330090000000     0.066580000000     0.497300000000     0.202822   
H37      H      0.267280000000     0.427210000000     0.098540000000     0.125816   
H38      H      0.256520000000     0.401260000000     0.041150000000     0.185245   
H39      H      0.233590000000     0.428520000000     0.456020000000     0.141809   
H40      H      0.255720000000     0.540030000000     0.403810000000     0.204513   
H41      H      0.289300000000     0.104120000000     0.464410000000     0.125117   
H42      H      0.288090000000     0.132660000000     0.520940000000     0.190329   
H43      H      0.311770000000     0.111530000000     0.108170000000     0.144832   
H44      H      0.298090000000     0.033080000000     0.144170000000     0.205708   
H45      H      0.243270000000     0.507590000000     0.420310000000     0.202708   
H46      H      0.314490000000     0.138280000000     0.549010000000     0.197289   
H47      H      0.293390000000     0.998530000000     0.160300000000     0.210411   
H48      H      0.231630000000     0.397790000000     0.011320000000     0.196149   
H49      H      0.383820000000     0.380460000000     0.474170000000     0.0294814  
H50      H      0.391300000000     0.423210000000     0.976400000000     0.0376354  
H51      H      0.388120000000     0.340360000000     0.526270000000     0.0986545  
H52      H      0.383850000000     0.425360000000     0.031600000000     0.064118   
H53      H      0.362760000000     0.387570000000     0.533110000000     0.0524335  
H54      H      0.420310000000     0.392370000000     0.054240000000     0.0300826  
H55      H      0.431390000000     0.391960000000     0.513700000000     0.0397218  
H56      H      0.332360000000     0.389840000000     0.971240000000     0.0981876  
H57      H      0.432260000000     0.050840000000     0.059330000000     0.0320901  
H58      H      0.432530000000     0.062780000000     0.519520000000     0.0317927  
H59      H      0.423410000000     0.151660000000     0.041500000000     0.0963901  
H60      H      0.452800000000     0.102200000000     0.577110000000     0.0601165  
H61      H      0.477100000000     0.081380000000     0.056320000000     0.0490745  
H62      H      0.449810000000     0.112700000000     0.506450000000     0.0239499  
H63      H      0.485930000000     0.122940000000     0.026210000000     0.0375583  
H64      H      0.398960000000     0.104390000000     0.560330000000     0.0985415  
H65      H      0.150190000000     0.436630000000     0.967670000000     0.0246428  
H66      H      0.154510000000     0.413100000000     0.001380000000     0.0284207  
H67      H      0.126330000000     0.386490000000     0.540120000000     0.100487   
H68      H      0.093530000000     0.446910000000     0.482490000000     0.0477787  
H69      H      0.101950000000     0.407460000000     0.475490000000     0.0499932  
H70      H      0.066620000000     0.416200000000     0.018740000000     0.0378531  
H71      H      0.098290000000     0.433060000000     0.039500000000     0.0285167  
H72      H      0.128000000000     0.475020000000     0.518860000000     0.0975845  
H73      H      0.160530000000     0.106520000000     0.584130000000     0.0365807  
H74      H      0.161320000000     0.138430000000     0.113390000000     0.0216486  
H75      H      0.159230000000     0.199430000000     0.533970000000     0.0991039  
H76      H      0.182750000000     0.171800000000     0.073260000000     0.0540891  
H77      H      0.184130000000     0.142930000000     0.543850000000     0.0599336  
H78      H      0.122410000000     0.156780000000     0.073150000000     0.0349516  
H79      H      0.129560000000     0.142260000000     0.539210000000     0.0350906  
H80      H      0.216770000000     0.137070000000     0.112020000000     0.0958254  
H81      H      0.329910000000     0.516310000000     0.382200000000     0.0338184  
H82      H      0.348040000000     0.049730000000     0.385980000000     0.0307185  
H83      H      0.424540000000     0.485120000000     0.399640000000     0.101497   
H84      H      0.371560000000     0.021040000000     0.341610000000     0.0530699  
H85      H      0.395020000000     0.538350000000     0.363570000000     0.0575989  
H86      H      0.391040000000     0.973000000000     0.345860000000     0.0343879  
H87      H      0.373540000000     0.475390000000     0.382600000000     0.0308622  
H88      H      0.388670000000     0.015440000000     0.426190000000     0.101571   
H89      H      0.080160000000     0.043820000000     0.443700000000     0.0343676  
H90      H      0.088730000000     0.506640000000     0.440460000000     0.0322153  
H91      H      0.172140000000     0.077520000000     0.434880000000     0.097382   
H92      H      0.112810000000     0.526230000000     0.487350000000     0.0500503  
H93      H      0.144780000000     0.017410000000     0.459070000000     0.0561414  
H94      H      0.130900000000     0.574260000000     0.494660000000     0.037544   
H95      H      0.121310000000     0.082170000000     0.453850000000     0.0277894  
H96      H      0.132200000000     0.543760000000     0.404860000000     0.0985935  
H97      H      0.141500000000     0.011050000000     0.124530000000     0.0351843  
H98      H      0.143000000000     0.507300000000     0.167370000000     0.0327234  
H99      H      0.156130000000     0.065730000000     0.209760000000     0.0957298  
H100     H      0.179500000000     0.558090000000     0.160980000000     0.0558225  
H101     H      0.158910000000     0.061650000000     0.124180000000     0.0614063  
H102     H      0.108170000000     0.556420000000     0.157370000000     0.0409273  
H103     H      0.130770000000     0.091230000000     0.160980000000     0.025456   
H104     H      0.193630000000     0.491090000000     0.164090000000     0.0997537  
H105     H      0.368020000000     0.972020000000     0.148610000000     0.0391079  
H106     H      0.399670000000     0.446020000000     0.145010000000     0.0240196  
H107     H      0.456230000000     0.029440000000     0.152450000000     0.0995048  
H108     H      0.434460000000     0.485020000000     0.125910000000     0.0543117  
H109     H      0.404920000000     0.011590000000     0.124540000000     0.0550387  
H110     H      0.418450000000     0.484740000000     0.185710000000     0.0310305  
H111     H      0.399800000000     0.015170000000     0.180780000000     0.0332975  
H112     H      0.402100000000     0.453370000000     0.087420000000     0.0962709  
H113     H      0.978770000000     0.140130000000     0.382260000000     0.0401172  
H114     H      0.449900000000     0.122880000000     0.413050000000     0.0225516  
H115     H      0.051340000000     0.142210000000     0.462310000000     0.0997953  
H116     H      0.476870000000     0.166560000000     0.433310000000     0.0436973  
H117     H      0.989610000000     0.137430000000     0.453800000000     0.0523813  
H118     H      0.523900000000     0.174180000000     0.407020000000     0.0366656  
H119     H      0.035910000000     0.138930000000     0.409620000000     0.0354099  
H120     H      0.486560000000     0.081580000000     0.428630000000     0.0982431  
H121     H      0.495030000000     0.328840000000     0.393640000000     0.0336346  
H122     H      0.487790000000     0.368280000000     0.385170000000     0.0297918  
H123     H      0.034700000000     0.418360000000     0.399660000000     0.0992472  
H124     H      0.054840000000     0.364730000000     0.409110000000     0.0546245  
H125     H      0.046540000000     0.337290000000     0.379340000000     0.0496672  
H126     H      0.524530000000     0.375220000000     0.340290000000     0.0371304  
H127     H      0.564200000000     0.379090000000     0.350590000000     0.0280489  
H128     H      0.999800000000     0.386970000000     0.439950000000     0.106183   
H129     H      0.588700000000     0.418590000000     0.170210000000     0.0295893  
H130     H      0.549750000000     0.409460000000     0.180110000000     0.0370393  
H131     H      0.016460000000     0.372630000000     0.154210000000     0.0974036  
H132     H      0.073170000000     0.429470000000     0.116060000000     0.0507016  
H133     H      0.074720000000     0.390930000000     0.129110000000     0.0565995  
H134     H      0.521930000000     0.412020000000     0.095410000000     0.0393644  
H135     H      0.510890000000     0.425720000000     0.133590000000     0.0285262  
H136     H      0.058780000000     0.469610000000     0.148400000000     0.0991768  
H137     H      0.982840000000     0.172010000000     0.221150000000     0.0335027  
H138     H      0.021130000000     0.172270000000     0.236870000000     0.0348084  
H139     H      0.549050000000     0.155000000000     0.141860000000     0.100535   
H140     H      0.495160000000     0.189610000000     0.172090000000     0.0600582  
H141     H      0.508840000000     0.213260000000     0.203250000000     0.0444995  
H142     H      0.062560000000     0.169720000000     0.191760000000     0.0256969  
H143     H      0.063260000000     0.208910000000     0.179950000000     0.0271951  
H144     H      0.012330000000     0.133730000000     0.178860000000     0.102892   
H145     H      0.467680000000     0.050950000000     0.834080000000     0.206908   
H146     H      0.068220000000     0.092860000000     0.759480000000     0.20333    
H147     H      0.080990000000     0.483550000000     0.832530000000     0.198802   
H148     H      0.496550000000     0.478210000000     0.728210000000     0.204813   
H149     H      0.057130000000     0.130330000000     0.827660000000     0.132189   
H150     H      0.116570000000     0.105510000000     0.810870000000     0.185316   
H151     H      0.136460000000     0.499680000000     0.821290000000     0.136994   
H152     H      0.100900000000     0.433490000000     0.797330000000     0.196542   
H153     H      0.499060000000     0.418290000000     0.759820000000     0.1244     
H154     H      0.440380000000     0.447980000000     0.762800000000     0.184132   
H155     H      0.426460000000     0.057870000000     0.765630000000     0.147774   
H156     H      0.465510000000     0.134140000000     0.798040000000     0.202726   
H157     H      0.107950000000     0.447800000000     0.761600000000     0.208668   
H158     H      0.409610000000     0.470080000000     0.769690000000     0.202451   
H159     H      0.447260000000     0.101230000000     0.805450000000     0.193269   
H160     H      0.146530000000     0.081450000000     0.812340000000     0.194482   
H161     H      0.469570000000     0.305900000000     0.583830000000     0.208162   
H162     H      0.484800000000     0.212060000000     0.995450000000     0.203777   
H163     H      0.062380000000     0.316430000000     0.984570000000     0.209024   
H164     H      0.080830000000     0.239730000000     0.590920000000     0.203098   
H165     H      0.424420000000     0.242990000000     0.986450000000     0.125986   
H166     H      0.469000000000     0.245430000000     0.933150000000     0.183619   
H167     H      0.077520000000     0.250500000000     0.939730000000     0.146906   
H168     H      0.124930000000     0.269580000000     0.977690000000     0.203174   
H169     H      0.123800000000     0.290270000000     0.593860000000     0.124831   
H170     H      0.080020000000     0.291560000000     0.646840000000     0.185709   
H171     H      0.489480000000     0.261840000000     0.658010000000     0.139733   
H172     H      0.427920000000     0.235780000000     0.597970000000     0.208199   
H173     H      0.126200000000     0.307250000000     0.984140000000     0.197854   
H174     H      0.050470000000     0.283790000000     0.670850000000     0.194103   
H175     H      0.416270000000     0.271590000000     0.590910000000     0.199551   
H176     H      0.496700000000     0.257950000000     0.908960000000     0.200399   
H177     H      0.251700000000     0.048480000000     0.603080000000     0.21108    
H178     H      0.308980000000     0.446760000000     0.548460000000     0.201313   
H179     H      0.215100000000     0.505990000000     0.978810000000     0.20911    
H180     H      0.328410000000     0.070310000000     0.998050000000     0.204409   
H181     H      0.268200000000     0.427940000000     0.598810000000     0.125582   
H182     H      0.255990000000     0.401670000000     0.541910000000     0.185317   
H183     H      0.234620000000     0.428580000000     0.955430000000     0.141988   
H184     H      0.255530000000     0.541270000000     0.904590000000     0.204943   
H185     H      0.286550000000     0.108460000000     0.966700000000     0.12577    
H186     H      0.285020000000     0.135570000000     0.024090000000     0.190187   
H187     H      0.313160000000     0.110540000000     0.606440000000     0.144607   
H188     H      0.298300000000     0.033440000000     0.644310000000     0.205313   
H189     H      0.243610000000     0.508360000000     0.920510000000     0.202368   
H190     H      0.312700000000     0.140410000000     0.051030000000     0.197061   
H191     H      0.294870000000     0.998990000000     0.661010000000     0.210466   
H192     H      0.231110000000     0.398090000000     0.512090000000     0.196573   
H193     H      0.385150000000     0.382390000000     0.974540000000     0.029551   
H194     H      0.390510000000     0.421200000000     0.476140000000     0.0378679  
H195     H      0.388810000000     0.342440000000     0.026700000000     0.0984241  
H196     H      0.382800000000     0.423230000000     0.531440000000     0.0636463  
H197     H      0.363640000000     0.389800000000     0.033490000000     0.0526179  
H198     H      0.419530000000     0.390370000000     0.553750000000     0.0302306  
H199     H      0.432320000000     0.393850000000     0.014230000000     0.0392966  
H200     H      0.331060000000     0.388510000000     0.471360000000     0.0979169  
H201     H      0.434090000000     0.048620000000     0.558690000000     0.0320093  
H202     H      0.431200000000     0.065510000000     0.020360000000     0.0318565  
H203     H      0.423610000000     0.149560000000     0.540590000000     0.0962136  
H204     H      0.451180000000     0.104310000000     0.078490000000     0.0599379  
H205     H      0.478650000000     0.079770000000     0.554310000000     0.0493282  
H206     H      0.450170000000     0.114620000000     0.007680000000     0.0237427  
H207     H      0.486000000000     0.121430000000     0.523880000000     0.0374811  
H208     H      0.397590000000     0.106940000000     0.061430000000     0.0982084  
H209     H      0.148990000000     0.437610000000     0.469150000000     0.0252383  
H210     H      0.153590000000     0.414130000000     0.503370000000     0.03008    
H211     H      0.126970000000     0.384050000000     0.036280000000     0.100201   
H212     H      0.094140000000     0.445480000000     0.980210000000     0.0480865  
H213     H      0.103130000000     0.406300000000     0.972440000000     0.0501698  
H214     H      0.066340000000     0.418870000000     0.522240000000     0.037639   
H215     H      0.098130000000     0.435730000000     0.542190000000     0.0280906  
H216     H      0.127730000000     0.473210000000     0.017760000000     0.0972903  
H217     H      0.158810000000     0.106840000000     0.086540000000     0.0358578  
H218     H      0.163270000000     0.136940000000     0.612910000000     0.0218255  
H219     H      0.159620000000     0.196480000000     0.030120000000     0.0989139  
H220     H      0.183960000000     0.172050000000     0.573710000000     0.0541773  
H221     H      0.185440000000     0.141320000000     0.045050000000     0.0600268  
H222     H      0.123560000000     0.159330000000     0.577090000000     0.0339439  
H223     H      0.131830000000     0.139300000000     0.036170000000     0.0346113  
H224     H      0.218740000000     0.137060000000     0.609290000000     0.0959001  
H225     H      0.330450000000     0.517600000000     0.883750000000     0.0342172  
H226     H      0.347240000000     0.055090000000     0.885300000000     0.0303384  
H227     H      0.425620000000     0.486940000000     0.901680000000     0.101571   
H228     H      0.370050000000     0.025000000000     0.841390000000     0.0531568  
H229     H      0.395770000000     0.539590000000     0.865790000000     0.0571278  
H230     H      0.388980000000     0.976830000000     0.846680000000     0.0344443  
H231     H      0.374440000000     0.476950000000     0.885430000000     0.0311983  
H232     H      0.387510000000     0.021570000000     0.925910000000     0.101795   
H233     H      0.079030000000     0.044100000000     0.944070000000     0.0344605  
H234     H      0.089490000000     0.504940000000     0.941460000000     0.0314281  
H235     H      0.169900000000     0.080300000000     0.936180000000     0.0975726  
H236     H      0.112000000000     0.526140000000     0.988660000000     0.0507082  
H237     H      0.144110000000     0.019070000000     0.959880000000     0.05651    
H238     H      0.130010000000     0.574350000000     0.995050000000     0.0375949  
H239     H      0.118950000000     0.083310000000     0.955120000000     0.0278307  
H240     H      0.132800000000     0.542230000000     0.906200000000     0.0982366  
H241     H      0.142420000000     0.012850000000     0.624390000000     0.0355882  
H242     H      0.144830000000     0.508970000000     0.667690000000     0.0333576  
H243     H      0.156510000000     0.066830000000     0.710530000000     0.0956895  
H244     H      0.181550000000     0.559630000000     0.662770000000     0.0560895  
H245     H      0.159980000000     0.063360000000     0.625060000000     0.060279   
H246     H      0.110230000000     0.558330000000     0.658630000000     0.0410356  
H247     H      0.131280000000     0.092550000000     0.661630000000     0.0256212  
H248     H      0.195620000000     0.493110000000     0.664410000000     0.100478   
H249     H      0.367900000000     0.971080000000     0.650390000000     0.0388327  
H250     H      0.400870000000     0.443880000000     0.643300000000     0.0238066  
H251     H      0.454810000000     0.030560000000     0.652850000000     0.0997265  
H252     H      0.433750000000     0.485160000000     0.625200000000     0.0545497  
H253     H      0.404260000000     0.010510000000     0.624520000000     0.0553165  
H254     H      0.419520000000     0.481060000000     0.685270000000     0.0301181  
H255     H      0.398180000000     0.017160000000     0.680060000000     0.0332151  
H256     H      0.402820000000     0.452400000000     0.586270000000     0.096454   
H257     H      0.974470000000     0.138100000000     0.882810000000     0.0391102  
H258     H      0.450440000000     0.125900000000     0.911870000000     0.0228207  
H259     H      0.051280000000     0.140320000000     0.958970000000     0.100111   
H260     H      0.477600000000     0.169170000000     0.932870000000     0.0440556  
H261     H      0.988950000000     0.136690000000     0.953680000000     0.0528195  
H262     H      0.525370000000     0.176050000000     0.907830000000     0.0385804  
H263     H      0.033320000000     0.136770000000     0.907180000000     0.0356551  
H264     H      0.486590000000     0.084240000000     0.928470000000     0.0985713  
H265     H      0.497070000000     0.330700000000     0.894470000000     0.0323566  
H266     H      0.489920000000     0.370160000000     0.885980000000     0.0305573  
H267     H      0.034990000000     0.416480000000     0.898120000000     0.0997281  
H268     H      0.054960000000     0.362730000000     0.906850000000     0.0547275  
H269     H      0.046130000000     0.335600000000     0.876920000000     0.0495094  
H270     H      0.527740000000     0.376960000000     0.841930000000     0.0376502  
H271     H      0.567090000000     0.381220000000     0.853330000000     0.0272864  
H272     H      0.000340000000     0.385190000000     0.938440000000     0.0993088  
H273     H      0.586600000000     0.417470000000     0.673020000000     0.0300554  
H274     H      0.547180000000     0.408620000000     0.680830000000     0.0361504  
H275     H      0.015470000000     0.375830000000     0.655740000000     0.0976096  
H276     H      0.071480000000     0.432020000000     0.614230000000     0.0506652  
H277     H      0.073530000000     0.393350000000     0.626800000000     0.057337   
H278     H      0.523840000000     0.410090000000     0.594660000000     0.0395294  
H279     H      0.510720000000     0.424020000000     0.632070000000     0.0286445  
H280     H      0.061010000000     0.472170000000     0.648000000000     0.0992644  
H281     H      0.980610000000     0.172670000000     0.722690000000     0.0334998  
H282     H      0.018620000000     0.173600000000     0.739070000000     0.0350065  
H283     H      0.549980000000     0.153630000000     0.640780000000     0.100495   
H284     H      0.496750000000     0.190310000000     0.671310000000     0.0601079  
H285     H      0.511560000000     0.213560000000     0.702240000000     0.044025   
H286     H      0.060870000000     0.172950000000     0.694760000000     0.0258458  
H287     H      0.060630000000     0.212160000000     0.682960000000     0.0273911  
H288     H      0.011390000000     0.135720000000     0.680290000000     0.10293    
H289     H      0.465200000000     0.551260000000     0.332400000000     0.206835   
H290     H      0.067370000000     0.592090000000     0.258450000000     0.20238    
H291     H      0.081870000000     0.983570000000     0.332280000000     0.20817    
H292     H      0.501370000000     0.976970000000     0.228760000000     0.20471    
H293     H      0.058130000000     0.631080000000     0.322100000000     0.129327   
H294     H      0.116170000000     0.604810000000     0.308990000000     0.18458    
H295     H      0.152230000000     0.019320000000     0.303040000000     0.139855   
H296     H      0.101390000000     0.932430000000     0.297650000000     0.200067   
H297     H      0.505190000000     0.916720000000     0.259510000000     0.124652   
H298     H      0.446050000000     0.945280000000     0.262980000000     0.183942   
H299     H      0.424820000000     0.559690000000     0.262840000000     0.148849   
H300     H      0.463800000000     0.633890000000     0.295740000000     0.203017   
H301     H      0.108440000000     0.947070000000     0.262060000000     0.21002    
H302     H      0.414810000000     0.966700000000     0.269950000000     0.203136   
H303     H      0.445790000000     0.601500000000     0.305680000000     0.193856   
H304     H      0.145440000000     0.580140000000     0.312630000000     0.194763   
H305     H      0.472290000000     0.807910000000     0.085720000000     0.208409   
H306     H      0.492790000000     0.708200000000     0.495250000000     0.202765   
H307     H      0.063570000000     0.817550000000     0.487000000000     0.208896   
H308     H      0.082180000000     0.736690000000     0.087480000000     0.203149   
H309     H      0.432240000000     0.737740000000     0.486960000000     0.124614   
H310     H      0.475440000000     0.741710000000     0.433210000000     0.183755   
H311     H      0.079160000000     0.750900000000     0.443370000000     0.146988   
H312     H      0.126240000000     0.771560000000     0.480920000000     0.20279    
H313     H      0.125330000000     0.787020000000     0.090330000000     0.124621   
H314     H      0.082250000000     0.788710000000     0.143540000000     0.18603    
H315     H      0.493270000000     0.763650000000     0.159460000000     0.13982    
H316     H      0.430050000000     0.738430000000     0.100630000000     0.208345   
H317     H      0.127290000000     0.809280000000     0.487120000000     0.197285   
H318     H      0.053080000000     0.780540000000     0.167870000000     0.193968   
H319     H      0.418660000000     0.774370000000     0.093850000000     0.199366   
H320     H      0.502440000000     0.754880000000     0.408580000000     0.201852   
H321     H      0.249930000000     0.548400000000     0.103420000000     0.211275   
H322     H      0.309830000000     0.946940000000     0.050050000000     0.200506   
H323     H      0.217950000000     0.002750000000     0.479430000000     0.20801    
H324     H      0.327970000000     0.569610000000     0.495370000000     0.203366   
H325     H      0.268270000000     0.927460000000     0.099630000000     0.125672   
H326     H      0.257460000000     0.901300000000     0.042280000000     0.185048   
H327     H      0.237290000000     0.924120000000     0.458750000000     0.141728   
H328     H      0.259430000000     0.034500000000     0.404790000000     0.204063   
H329     H      0.286260000000     0.608040000000     0.464720000000     0.125288   
H330     H      0.285760000000     0.635440000000     0.521960000000     0.190585   
H331     H      0.311130000000     0.611170000000     0.107790000000     0.144855   
H332     H      0.297370000000     0.532390000000     0.143750000000     0.204144   
H333     H      0.246780000000     0.002490000000     0.422000000000     0.200929   
H334     H      0.313440000000     0.640410000000     0.548860000000     0.197299   
H335     H      0.293530000000     0.497520000000     0.159420000000     0.204813   
H336     H      0.233140000000     0.897590000000     0.011990000000     0.196194   
H337     H      0.387280000000     0.878450000000     0.477240000000     0.0294207  
H338     H      0.392940000000     0.922950000000     0.977560000000     0.0379432  
H339     H      0.395040000000     0.836740000000     0.527850000000     0.0985313  
H340     H      0.386120000000     0.926580000000     0.032670000000     0.0650052  
H341     H      0.368690000000     0.882860000000     0.537180000000     0.0530076  
H342     H      0.422000000000     0.893450000000     0.056320000000     0.0298239  
H343     H      0.436200000000     0.889380000000     0.514450000000     0.039664   
H344     H      0.334170000000     0.889430000000     0.973100000000     0.0982945  
H345     H      0.430910000000     0.550870000000     0.057940000000     0.0328345  
H346     H      0.433870000000     0.572570000000     0.513580000000     0.0300539  
H347     H      0.423060000000     0.652450000000     0.043100000000     0.096241   
H348     H      0.447700000000     0.597660000000     0.580300000000     0.0587329  
H349     H      0.475790000000     0.581470000000     0.056070000000     0.0496202  
H350     H      0.471240000000     0.610520000000     0.513030000000     0.025602   
H351     H      0.484940000000     0.623100000000     0.026240000000     0.0379957  
H352     H      0.398590000000     0.606860000000     0.555210000000     0.0970313  
H353     H      0.151990000000     0.936170000000     0.967810000000     0.025871   
H354     H      0.156000000000     0.912840000000     0.001700000000     0.0285346  
H355     H      0.127510000000     0.886400000000     0.539540000000     0.100902   
H356     H      0.096060000000     0.944870000000     0.479390000000     0.0488657  
H357     H      0.104330000000     0.905190000000     0.473700000000     0.0499641  
H358     H      0.067990000000     0.915930000000     0.018240000000     0.0382961  
H359     H      0.099630000000     0.932550000000     0.039260000000     0.0291314  
H360     H      0.129850000000     0.973280000000     0.516460000000     0.0988539  
H361     H      0.161050000000     0.608240000000     0.587690000000     0.0365046  
H362     H      0.160610000000     0.638250000000     0.114080000000     0.0216831  
H363     H      0.161310000000     0.699100000000     0.534480000000     0.0992313  
H364     H      0.181790000000     0.671920000000     0.074410000000     0.0538823  
H365     H      0.187150000000     0.644750000000     0.547920000000     0.0598848  
H366     H      0.121810000000     0.656290000000     0.072760000000     0.0352841  
H367     H      0.133020000000     0.641910000000     0.540630000000     0.0353507  
H368     H      0.216080000000     0.636500000000     0.112880000000     0.0959633  
H369     H      0.334860000000     0.011080000000     0.384750000000     0.0322603  
H370     H      0.344290000000     0.554560000000     0.382870000000     0.0306724  
H371     H      0.430780000000     0.982160000000     0.402440000000     0.102585   
H372     H      0.365580000000     0.524420000000     0.338110000000     0.0524341  
H373     H      0.399930000000     0.034880000000     0.368360000000     0.0573825  
H374     H      0.385630000000     0.476600000000     0.342410000000     0.0342797  
H375     H      0.379730000000     0.971560000000     0.386270000000     0.0309433  
H376     H      0.385100000000     0.520260000000     0.422250000000     0.103333   
H377     H      0.077660000000     0.545680000000     0.444170000000     0.0345426  
H378     H      0.091330000000     0.004790000000     0.440070000000     0.0305708  
H379     H      0.168470000000     0.580340000000     0.436150000000     0.0976599  
H380     H      0.115240000000     0.025260000000     0.486960000000     0.0490881  
H381     H      0.142480000000     0.519480000000     0.459330000000     0.0570475  
H382     H      0.133810000000     0.073300000000     0.492950000000     0.0371487  
H383     H      0.117830000000     0.584000000000     0.455970000000     0.0277695  
H384     H      0.134710000000     0.041650000000     0.404210000000     0.0983945  
H385     H      0.141030000000     0.510830000000     0.125200000000     0.0364913  
H386     H      0.143080000000     0.007610000000     0.166710000000     0.0313199  
H387     H      0.155300000000     0.565460000000     0.210310000000     0.0960254  
H388     H      0.179950000000     0.058380000000     0.160110000000     0.0556459  
H389     H      0.158820000000     0.561410000000     0.124840000000     0.0618109  
H390     H      0.108600000000     0.056860000000     0.157130000000     0.0403756  
H391     H      0.130140000000     0.590900000000     0.161200000000     0.0256374  
H392     H      0.193690000000     0.991280000000     0.163930000000     0.103777   
H393     H      0.367620000000     0.472520000000     0.146950000000     0.037015   
H394     H      0.399360000000     0.944660000000     0.146590000000     0.0253094  
H395     H      0.454320000000     0.532290000000     0.150230000000     0.10061    
H396     H      0.435020000000     0.983350000000     0.127230000000     0.0529727  
H397     H      0.403870000000     0.512440000000     0.121130000000     0.0614364  
H398     H      0.421650000000     0.980850000000     0.187240000000     0.0367626  
H399     H      0.397220000000     0.518880000000     0.176580000000     0.0316288  
H400     H      0.402580000000     0.952800000000     0.089110000000     0.0964221  
H401     H      0.980190000000     0.642370000000     0.382510000000     0.0405297  
H402     H      0.452950000000     0.627940000000     0.413390000000     0.0230263  
H403     H      0.051690000000     0.640450000000     0.464610000000     0.0998515  
H404     H      0.483620000000     0.668550000000     0.434510000000     0.0439286  
H405     H      0.989210000000     0.638210000000     0.454240000000     0.0528523  
H406     H      0.530390000000     0.672790000000     0.406490000000     0.0367178  
H407     H      0.036790000000     0.636940000000     0.411920000000     0.0348957  
H408     H      0.486200000000     0.583440000000     0.427890000000     0.098723   
H409     H      0.503530000000     0.827890000000     0.393870000000     0.0337032  
H410     H      0.495760000000     0.867310000000     0.385740000000     0.0300632  
H411     H      0.036310000000     0.917090000000     0.399460000000     0.100237   
H412     H      0.056670000000     0.863790000000     0.409030000000     0.0546603  
H413     H      0.048810000000     0.836130000000     0.379350000000     0.0495444  
H414     H      0.533200000000     0.875030000000     0.341670000000     0.0375251  
H415     H      0.572610000000     0.879510000000     0.352730000000     0.0281662  
H416     H      0.001580000000     0.885370000000     0.439690000000     0.0995553  
H417     H      0.592660000000     0.918250000000     0.172010000000     0.0302963  
H418     H      0.553610000000     0.908880000000     0.181100000000     0.0365402  
H419     H      0.017380000000     0.872610000000     0.153770000000     0.0974732  
H420     H      0.074510000000     0.929120000000     0.115710000000     0.0511993  
H421     H      0.075820000000     0.890510000000     0.128590000000     0.0567388  
H422     H      0.527590000000     0.911340000000     0.095640000000     0.0399032  
H423     H      0.515630000000     0.925250000000     0.133460000000     0.0293195  
H424     H      0.059940000000     0.969150000000     0.148220000000     0.100316   
H425     H      0.982510000000     0.673310000000     0.220380000000     0.0343771  
H426     H      0.020680000000     0.673040000000     0.236450000000     0.0352676  
H427     H      0.551280000000     0.654300000000     0.140500000000     0.100431   
H428     H      0.499320000000     0.692580000000     0.171970000000     0.0604056  
H429     H      0.515300000000     0.715030000000     0.202920000000     0.0440689  
H430     H      0.062380000000     0.669600000000     0.191430000000     0.0260926  
H431     H      0.063810000000     0.708710000000     0.179420000000     0.0276247  
H432     H      0.011640000000     0.634510000000     0.178430000000     0.103379   
H433     H      0.464750000000     0.551610000000     0.832610000000     0.207042   
H434     H      0.069090000000     0.592570000000     0.760390000000     0.203607   
H435     H      0.082240000000     0.984420000000     0.832070000000     0.208159   
H436     H      0.499370000000     0.977770000000     0.729480000000     0.204703   
H437     H      0.058250000000     0.629730000000     0.828630000000     0.132178   
H438     H      0.118020000000     0.603790000000     0.812670000000     0.1859     
H439     H      0.152400000000     0.021380000000     0.804220000000     0.139872   
H440     H      0.102260000000     0.933680000000     0.796890000000     0.200012   
H441     H      0.502090000000     0.917770000000     0.760950000000     0.124418   
H442     H      0.443710000000     0.947240000000     0.764130000000     0.183772   
H443     H      0.423660000000     0.558370000000     0.763410000000     0.148939   
H444     H      0.461420000000     0.633050000000     0.791940000000     0.203387   
H445     H      0.109490000000     0.949140000000     0.761700000000     0.210254   
H446     H      0.412790000000     0.969200000000     0.770860000000     0.202985   
H447     H      0.444360000000     0.601380000000     0.805400000000     0.194141   
H448     H      0.147370000000     0.578960000000     0.813550000000     0.201615   
H449     H      0.477760000000     0.803320000000     0.584780000000     0.208377   
H450     H      0.483890000000     0.712440000000     0.995790000000     0.20379    
H451     H      0.063090000000     0.816160000000     0.984120000000     0.208847   
H452     H      0.083300000000     0.740030000000     0.591790000000     0.203412   
H453     H      0.423560000000     0.744080000000     0.988620000000     0.126096   
H454     H      0.466630000000     0.746200000000     0.934410000000     0.183748   
H455     H      0.077880000000     0.750190000000     0.939370000000     0.147056   
H456     H      0.125370000000     0.768980000000     0.977230000000     0.203139   
H457     H      0.126050000000     0.790670000000     0.593790000000     0.124725   
H458     H      0.082620000000     0.792870000000     0.646930000000     0.185907   
H459     H      0.499570000000     0.761670000000     0.659240000000     0.139131   
H460     H      0.437570000000     0.733360000000     0.599500000000     0.208659   
H461     H      0.126830000000     0.806650000000     0.983680000000     0.19813    
H462     H      0.053450000000     0.784910000000     0.671330000000     0.194472   
H463     H      0.424440000000     0.768510000000     0.591720000000     0.199528   
H464     H      0.493610000000     0.758720000000     0.909410000000     0.200793   
H465     H      0.252070000000     0.549350000000     0.602640000000     0.21144    
H466     H      0.310050000000     0.944770000000     0.552500000000     0.201564   
H467     H      0.216790000000     0.005720000000     0.978940000000     0.207893   
H468     H      0.326790000000     0.570590000000     0.997300000000     0.20452    
H469     H      0.268130000000     0.926950000000     0.602400000000     0.125676   
H470     H      0.256880000000     0.899490000000     0.545800000000     0.185611   
H471     H      0.236400000000     0.928230000000     0.956120000000     0.142136   
H472     H      0.257930000000     0.040390000000     0.904880000000     0.204101   
H473     H      0.284650000000     0.608880000000     0.966620000000     0.125679   
H474     H      0.283400000000     0.635700000000     0.024160000000     0.190167   
H475     H      0.314380000000     0.611290000000     0.605680000000     0.144699   
H476     H      0.299340000000     0.533520000000     0.642490000000     0.20427    
H477     H      0.245640000000     0.007700000000     0.920990000000     0.200897   
H478     H      0.311370000000     0.640430000000     0.050790000000     0.197262   
H479     H      0.296110000000     0.498750000000     0.658510000000     0.205017   
H480     H      0.232620000000     0.895370000000     0.515520000000     0.196592   
H481     H      0.386910000000     0.882090000000     0.976870000000     0.0298172  
H482     H      0.392950000000     0.919280000000     0.480370000000     0.0387253  
H483     H      0.390120000000     0.843500000000     0.029870000000     0.0984567  
H484     H      0.387490000000     0.919190000000     0.535980000000     0.0627045  
H485     H      0.365480000000     0.891330000000     0.035780000000     0.0527624  
H486     H      0.426680000000     0.887240000000     0.555080000000     0.0310681  
H487     H      0.434160000000     0.894390000000     0.016320000000     0.0396977  
H488     H      0.334150000000     0.884750000000     0.477810000000     0.097777   
H489     H      0.430750000000     0.547390000000     0.546240000000     0.0361645  
H490     H      0.430290000000     0.566230000000     0.019230000000     0.0321099  
H491     H      0.433150000000     0.646680000000     0.544230000000     0.0970199  
H492     H      0.449580000000     0.604040000000     0.078280000000     0.059942   
H493     H      0.474280000000     0.572180000000     0.562560000000     0.0482912  
H494     H      0.448910000000     0.615810000000     0.007830000000     0.0239955  
H495     H      0.496400000000     0.616080000000     0.545440000000     0.0405142  
H496     H      0.396290000000     0.607160000000     0.060190000000     0.0980555  
H497     H      0.151610000000     0.935520000000     0.467760000000     0.0257178  
H498     H      0.155420000000     0.911980000000     0.502040000000     0.029956   
H499     H      0.128110000000     0.883380000000     0.035860000000     0.100137   
H500     H      0.095800000000     0.945140000000     0.979930000000     0.0493507  
H501     H      0.104880000000     0.905980000000     0.972170000000     0.0506144  
H502     H      0.067700000000     0.917690000000     0.519070000000     0.038196   
H503     H      0.098720000000     0.935510000000     0.539370000000     0.0288079  
H504     H      0.129080000000     0.972990000000     0.017550000000     0.0985806  
H505     H      0.158010000000     0.606790000000     0.087080000000     0.0361026  
H506     H      0.164500000000     0.638690000000     0.616350000000     0.0217524  
H507     H      0.159580000000     0.695580000000     0.029610000000     0.0989473  
H508     H      0.184520000000     0.673810000000     0.577710000000     0.05389    
H509     H      0.185650000000     0.641630000000     0.046120000000     0.059807   
H510     H      0.124630000000     0.659500000000     0.577830000000     0.0348332  
H511     H      0.132240000000     0.638520000000     0.036190000000     0.034744   
H512     H      0.219860000000     0.637020000000     0.613210000000     0.0959845  
H513     H      0.333250000000     0.016690000000     0.884720000000     0.0325709  
H514     H      0.344710000000     0.555910000000     0.884180000000     0.0306926  
H515     H      0.428700000000     0.986390000000     0.903190000000     0.102794   
H516     H      0.366690000000     0.525520000000     0.839980000000     0.0530111  
H517     H      0.398710000000     0.039010000000     0.867710000000     0.0573909  
H518     H      0.386000000000     0.477480000000     0.845080000000     0.0344856  
H519     H      0.377510000000     0.976370000000     0.887060000000     0.0314501  
H520     H      0.385280000000     0.522340000000     0.924310000000     0.103226   
H521     H      0.077360000000     0.543730000000     0.944590000000     0.0349497  
H522     H      0.091030000000     0.005310000000     0.940460000000     0.0307115  
H523     H      0.167630000000     0.580380000000     0.936750000000     0.097864   
H524     H      0.114160000000     0.026000000000     0.987570000000     0.0497254  
H525     H      0.142290000000     0.518930000000     0.961440000000     0.0575712  
H526     H      0.131700000000     0.074360000000     0.994120000000     0.037396   
H527     H      0.116830000000     0.583160000000     0.956160000000     0.0278768  
H528     H      0.133980000000     0.043000000000     0.905060000000     0.0984716  
H529     H      0.142970000000     0.513440000000     0.625590000000     0.0368266  
H530     H      0.143300000000     0.008880000000     0.666550000000     0.0314465  
H531     H      0.157090000000     0.566570000000     0.711960000000     0.0978851  
H532     H      0.180580000000     0.059520000000     0.661170000000     0.0553074  
H533     H      0.161240000000     0.563870000000     0.626520000000     0.0611396  
H534     H      0.109240000000     0.058130000000     0.657650000000     0.0406753  
H535     H      0.132230000000     0.592720000000     0.663080000000     0.0257213  
H536     H      0.194180000000     0.993080000000     0.664770000000     0.103876   
H537     H      0.367740000000     0.468970000000     0.646240000000     0.0369847  
H538     H      0.399840000000     0.944370000000     0.649230000000     0.0249438  
H539     H      0.452700000000     0.531000000000     0.651290000000     0.100548   
H540     H      0.434800000000     0.983010000000     0.629160000000     0.0531502  
H541     H      0.401920000000     0.511450000000     0.622690000000     0.0618279  
H542     H      0.419540000000     0.983070000000     0.689080000000     0.0372558  
H543     H      0.396350000000     0.514490000000     0.678700000000     0.0317522  
H544     H      0.402710000000     0.950320000000     0.591640000000     0.096843   
H545     H      0.973880000000     0.638040000000     0.882900000000     0.0389997  
H546     H      0.447780000000     0.627040000000     0.910300000000     0.022914   
H547     H      0.051180000000     0.640180000000     0.958520000000     0.100164   
H548     H      0.475260000000     0.670160000000     0.931300000000     0.0444165  
H549     H      0.988810000000     0.636830000000     0.953660000000     0.0529656  
H550     H      0.523190000000     0.676770000000     0.906670000000     0.0391638  
H551     H      0.032890000000     0.636590000000     0.906860000000     0.0360683  
H552     H      0.483680000000     0.585160000000     0.926960000000     0.0989956  
H553     H      0.496050000000     0.831670000000     0.894650000000     0.0323631  
H554     H      0.490700000000     0.871430000000     0.886240000000     0.0306958  
H555     H      0.037090000000     0.916800000000     0.898270000000     0.100249   
H556     H      0.056570000000     0.862960000000     0.907170000000     0.0548513  
H557     H      0.048160000000     0.835880000000     0.877080000000     0.0496893  
H558     H      0.529440000000     0.876710000000     0.842480000000     0.0378143  
H559     H      0.568720000000     0.879550000000     0.854620000000     0.0273721  
H560     H      0.001680000000     0.885350000000     0.938040000000     0.0996838  
H561     H      0.590840000000     0.918050000000     0.674990000000     0.0304726  
H562     H      0.551580000000     0.908060000000     0.682030000000     0.0362309  
H563     H      0.016820000000     0.876410000000     0.655410000000     0.0976537  
H564     H      0.073470000000     0.932060000000     0.614230000000     0.0513598  
H565     H      0.075240000000     0.893360000000     0.626810000000     0.0573316  
H566     H      0.529800000000     0.908190000000     0.595530000000     0.0399437  
H567     H      0.515500000000     0.921560000000     0.632700000000     0.0292805  
H568     H      0.061690000000     0.972110000000     0.647860000000     0.101073   
H569     H      0.983190000000     0.673800000000     0.723740000000     0.0343081  
H570     H      0.021110000000     0.674190000000     0.740340000000     0.0354485  
H571     H      0.557930000000     0.651460000000     0.640590000000     0.0992697  
H572     H      0.504660000000     0.691750000000     0.669060000000     0.0616618  
H573     H      0.520050000000     0.714240000000     0.700290000000     0.0441169  
H574     H      0.063810000000     0.674140000000     0.696750000000     0.0261828  
H575     H      0.063600000000     0.713250000000     0.684570000000     0.0277991  
H576     H      0.013970000000     0.636950000000     0.681140000000     0.103283   
H577     H      0.967730000000     0.052870000000     0.333820000000     0.207131   
H578     H      0.568360000000     0.090200000000     0.259200000000     0.203356   
H579     H      0.578650000000     0.480870000000     0.331130000000     0.207689   
H580     H      0.997460000000     0.480360000000     0.228980000000     0.211267   
H581     H      0.557380000000     0.127940000000     0.325850000000     0.131039   
H582     H      0.616880000000     0.103660000000     0.310440000000     0.185168   
H583     H      0.649650000000     0.516260000000     0.303910000000     0.139987   
H584     H      0.597960000000     0.429730000000     0.295950000000     0.199583   
H585     H      0.999240000000     0.420520000000     0.260630000000     0.13025    
H586     H      0.940870000000     0.450640000000     0.263470000000     0.184772   
H587     H      0.926400000000     0.059870000000     0.264670000000     0.148684   
H588     H      0.947540000000     0.102940000000     0.305420000000     0.193953   
H589     H      0.605810000000     0.445140000000     0.260880000000     0.209359   
H590     H      0.910280000000     0.473140000000     0.269800000000     0.202448   
H591     H      0.965700000000     0.135630000000     0.296900000000     0.204188   
H592     H      0.647050000000     0.079880000000     0.312420000000     0.194342   
H593     H      0.971760000000     0.307740000000     0.084620000000     0.209145   
H594     H      0.984700000000     0.214730000000     0.496740000000     0.203092   
H595     H      0.561470000000     0.314660000000     0.485000000000     0.208925   
H596     H      0.580090000000     0.237260000000     0.090480000000     0.203091   
H597     H      0.924330000000     0.245820000000     0.488240000000     0.125147   
H598     H      0.968220000000     0.247810000000     0.435000000000     0.184001   
H599     H      0.577530000000     0.248410000000     0.440630000000     0.14694    
H600     H      0.624300000000     0.268570000000     0.479110000000     0.202978   
H601     H      0.622600000000     0.288140000000     0.093990000000     0.124488   
H602     H      0.578870000000     0.289260000000     0.146150000000     0.18598    
H603     H      0.992620000000     0.263580000000     0.158490000000     0.141739   
H604     H      0.929970000000     0.238000000000     0.099070000000     0.208866   
H605     H      0.625130000000     0.306250000000     0.485610000000     0.19745    
H606     H      0.549190000000     0.281570000000     0.170010000000     0.19531    
H607     H      0.918240000000     0.273800000000     0.092150000000     0.199785   
H608     H      0.995630000000     0.260090000000     0.410360000000     0.203521   
H609     H      0.750790000000     0.048550000000     0.103650000000     0.211251   
H610     H      0.809180000000     0.446850000000     0.049510000000     0.200829   
H611     H      0.711690000000     0.504280000000     0.477970000000     0.208192   
H612     H      0.828290000000     0.071470000000     0.498350000000     0.203342   
H613     H      0.767540000000     0.427570000000     0.099420000000     0.125907   
H614     H      0.757010000000     0.400940000000     0.042290000000     0.18512    
H615     H      0.734300000000     0.425470000000     0.459520000000     0.142121   
H616     H      0.751470000000     0.534100000000     0.402000000000     0.204465   
H617     H      0.786030000000     0.109440000000     0.467370000000     0.125442   
H618     H      0.784160000000     0.136150000000     0.524950000000     0.19051    
H619     H      0.811930000000     0.111460000000     0.108000000000     0.144924   
H620     H      0.798280000000     0.032810000000     0.144220000000     0.205442   
H621     H      0.739020000000     0.503000000000     0.421010000000     0.202692   
H622     H      0.811620000000     0.141210000000     0.552070000000     0.197198   
H623     H      0.793520000000     0.998210000000     0.160260000000     0.210235   
H624     H      0.732460000000     0.396970000000     0.012240000000     0.196009   
H625     H      0.885690000000     0.386720000000     0.477570000000     0.0302491  
H626     H      0.891890000000     0.422770000000     0.976970000000     0.0381275  
H627     H      0.889190000000     0.345530000000     0.529430000000     0.098652   
H628     H      0.884990000000     0.425890000000     0.032150000000     0.0644018  
H629     H      0.864070000000     0.392740000000     0.536980000000     0.0525233  
H630     H      0.921250000000     0.392880000000     0.055370000000     0.0307191  
H631     H      0.932520000000     0.397070000000     0.516910000000     0.0407184  
H632     H      0.833160000000     0.389010000000     0.972590000000     0.0982878  
H633     H      0.932150000000     0.050990000000     0.058380000000     0.0327608  
H634     H      0.931540000000     0.068250000000     0.520420000000     0.0323872  
H635     H      0.924080000000     0.152090000000     0.041890000000     0.0963951  
H636     H      0.950190000000     0.106470000000     0.579400000000     0.0605802  
H637     H      0.976970000000     0.081470000000     0.056150000000     0.0504402  
H638     H      0.950060000000     0.117750000000     0.508850000000     0.0246152  
H639     H      0.986300000000     0.122910000000     0.026060000000     0.0390838  
H640     H      0.896990000000     0.108870000000     0.561190000000     0.0982056  
H641     H      0.651140000000     0.434180000000     0.969120000000     0.0250628  
H642     H      0.654440000000     0.411620000000     0.003630000000     0.0281914  
H643     H      0.624940000000     0.382810000000     0.538830000000     0.100417   
H644     H      0.593160000000     0.442260000000     0.479800000000     0.0482549  
H645     H      0.602730000000     0.402930000000     0.473780000000     0.0501793  
H646     H      0.566170000000     0.415910000000     0.018790000000     0.038109   
H647     H      0.597430000000     0.433170000000     0.039850000000     0.0284499  
H648     H      0.625430000000     0.471650000000     0.516990000000     0.09766    
H649     H      0.658700000000     0.105740000000     0.587210000000     0.0363549  
H650     H      0.661530000000     0.137250000000     0.115230000000     0.0216831  
H651     H      0.658740000000     0.195560000000     0.532160000000     0.0992378  
H652     H      0.682550000000     0.171340000000     0.075320000000     0.0541903  
H653     H      0.685250000000     0.142170000000     0.547590000000     0.0600036  
H654     H      0.622210000000     0.157150000000     0.076500000000     0.0345613  
H655     H      0.631520000000     0.138190000000     0.538570000000     0.0351878  
H656     H      0.716970000000     0.136340000000     0.112970000000     0.0959527  
H657     H      0.829240000000     0.515970000000     0.381640000000     0.0334118  
H658     H      0.847250000000     0.057150000000     0.385400000000     0.0302351  
H659     H      0.925720000000     0.489980000000     0.402030000000     0.101907   
H660     H      0.869610000000     0.027000000000     0.341250000000     0.0529172  
H661     H      0.894010000000     0.541150000000     0.365840000000     0.0579261  
H662     H      0.888680000000     0.978870000000     0.346340000000     0.034497   
H663     H      0.875180000000     0.477960000000     0.385380000000     0.0309828  
H664     H      0.887690000000     0.023620000000     0.425680000000     0.101931   
H665     H      0.579710000000     0.042170000000     0.443900000000     0.0350762  
H666     H      0.587180000000     0.501260000000     0.440420000000     0.0315822  
H667     H      0.669750000000     0.080360000000     0.436640000000     0.0976329  
H668     H      0.606800000000     0.525780000000     0.487690000000     0.0502447  
H669     H      0.645190000000     0.018450000000     0.460060000000     0.0562076  
H670     H      0.625720000000     0.574000000000     0.491810000000     0.0373809  
H671     H      0.618660000000     0.082150000000     0.455270000000     0.0278836  
H672     H      0.630610000000     0.537550000000     0.405110000000     0.0991438  
H673     H      0.641830000000     0.011350000000     0.125180000000     0.0355201  
H674     H      0.642670000000     0.506980000000     0.166530000000     0.0330874  
H675     H      0.656780000000     0.066540000000     0.210440000000     0.095689   
H676     H      0.679490000000     0.557780000000     0.161220000000     0.0556594  
H677     H      0.659920000000     0.061760000000     0.124920000000     0.0616316  
H678     H      0.608180000000     0.556450000000     0.157430000000     0.041295   
H679     H      0.631780000000     0.091510000000     0.161470000000     0.0255183  
H680     H      0.693490000000     0.491140000000     0.163720000000     0.0997651  
H681     H      0.868050000000     0.972520000000     0.148550000000     0.0391745  
H682     H      0.899520000000     0.446730000000     0.146040000000     0.0246069  
H683     H      0.954890000000     0.032010000000     0.152370000000     0.100495   
H684     H      0.934170000000     0.486140000000     0.126860000000     0.0552865  
H685     H      0.904000000000     0.012920000000     0.124050000000     0.0554781  
H686     H      0.919450000000     0.484400000000     0.186830000000     0.0308396  
H687     H      0.898320000000     0.017490000000     0.180010000000     0.0333712  
H688     H      0.902490000000     0.454360000000     0.088530000000     0.0968641  
H689     H      0.476020000000     0.135280000000     0.382940000000     0.0376848  
H690     H      0.951210000000     0.127810000000     0.411010000000     0.0231669  
H691     H      0.551630000000     0.138230000000     0.460300000000     0.100757   
H692     H      0.977530000000     0.170930000000     0.433090000000     0.0442145  
H693     H      0.489680000000     0.133290000000     0.453980000000     0.0521904  
H694     H      0.025390000000     0.178860000000     0.408580000000     0.0362365  
H695     H      0.534500000000     0.134290000000     0.408230000000     0.0356903  
H696     H      0.987650000000     0.086360000000     0.428250000000     0.100242   
H697     H      0.996530000000     0.333550000000     0.395410000000     0.0414581  
H698     H      0.990000000000     0.372730000000     0.387000000000     0.037658   
H699     H      0.531730000000     0.413950000000     0.396720000000     0.100886   
H700     H      0.553240000000     0.360350000000     0.405140000000     0.0563758  
H701     H      0.543990000000     0.333150000000     0.375420000000     0.0511027  
H702     H      0.028370000000     0.378730000000     0.343310000000     0.0368888  
H703     H      0.067920000000     0.383250000000     0.355340000000     0.0277441  
H704     H      0.498410000000     0.382580000000     0.437730000000     0.100904   
H705     H      0.088620000000     0.419750000000     0.174370000000     0.0297513  
H706     H      0.048950000000     0.410090000000     0.181640000000     0.0358174  
H707     H      0.513380000000     0.373410000000     0.154500000000     0.0985505  
H708     H      0.569940000000     0.429290000000     0.113040000000     0.0509291  
H709     H      0.571800000000     0.390580000000     0.125540000000     0.057369   
H710     H      0.026630000000     0.411500000000     0.095480000000     0.0387141  
H711     H      0.012960000000     0.425230000000     0.132760000000     0.0276989  
H712     H      0.559440000000     0.469350000000     0.146730000000     0.0998648  
H713     H      0.478170000000     0.167570000000     0.221420000000     0.0277157  
H714     H      0.516350000000     0.170380000000     0.237890000000     0.0345794  
H715     H      0.052570000000     0.154730000000     0.139450000000     0.099564   
H716     H      0.999780000000     0.192610000000     0.171320000000     0.0664283  
H717     H      0.015910000000     0.215470000000     0.201870000000     0.0434879  
H718     H      0.558760000000     0.170770000000     0.194270000000     0.0263077  
H719     H      0.557520000000     0.209700000000     0.182950000000     0.0278685  
H720     H      0.510100000000     0.131480000000     0.179680000000     0.103814   
H721     H      0.967370000000     0.052580000000     0.833860000000     0.207386   
H722     H      0.568310000000     0.090110000000     0.758850000000     0.202793   
H723     H      0.579330000000     0.482990000000     0.831600000000     0.207165   
H724     H      0.998920000000     0.481670000000     0.728330000000     0.210894   
H725     H      0.558430000000     0.128480000000     0.824740000000     0.131136   
H726     H      0.617160000000     0.103190000000     0.809620000000     0.185402   
H727     H      0.649360000000     0.518680000000     0.802990000000     0.139753   
H728     H      0.599460000000     0.432210000000     0.796940000000     0.199383   
H729     H      0.000650000000     0.421100000000     0.758480000000     0.122348   
H730     H      0.942570000000     0.451320000000     0.761550000000     0.185289   
H731     H      0.926280000000     0.060030000000     0.764900000000     0.148195   
H732     H      0.946970000000     0.103380000000     0.805070000000     0.193502   
H733     H      0.606210000000     0.446450000000     0.761120000000     0.209102   
H734     H      0.911880000000     0.473530000000     0.768460000000     0.202836   
H735     H      0.965430000000     0.136500000000     0.799450000000     0.203935   
H736     H      0.646830000000     0.078880000000     0.812390000000     0.194526   
H737     H      0.970670000000     0.310340000000     0.586150000000     0.20892    
H738     H      0.984840000000     0.212520000000     0.994630000000     0.204108   
H739     H      0.562280000000     0.316140000000     0.986300000000     0.203346   
H740     H      0.580110000000     0.235880000000     0.589060000000     0.203347   
H741     H      0.924410000000     0.243560000000     0.986960000000     0.126214   
H742     H      0.967720000000     0.245870000000     0.933340000000     0.183762   
H743     H      0.567360000000     0.288580000000     0.932750000000     0.135845   
H744     H      0.622130000000     0.270430000000     0.978820000000     0.210187   
H745     H      0.622820000000     0.286470000000     0.592140000000     0.124744   
H746     H      0.578750000000     0.287820000000     0.645010000000     0.185962   
H747     H      0.990620000000     0.266160000000     0.660250000000     0.141958   
H748     H      0.928690000000     0.240530000000     0.600400000000     0.208881   
H749     H      0.629550000000     0.306390000000     0.989740000000     0.19876    
H750     H      0.549120000000     0.279980000000     0.668880000000     0.195028   
H751     H      0.917030000000     0.276310000000     0.593270000000     0.1998     
H752     H      0.994710000000     0.258580000000     0.908450000000     0.20368    
H753     H      0.750870000000     0.048460000000     0.603880000000     0.211239   
H754     H      0.807220000000     0.452100000000     0.551250000000     0.201164   
H755     H      0.715460000000     0.504820000000     0.978620000000     0.209143   
H756     H      0.828210000000     0.070290000000     0.997850000000     0.2044     
H757     H      0.769620000000     0.433910000000     0.603730000000     0.124852   
H758     H      0.756160000000     0.404810000000     0.547160000000     0.185167   
H759     H      0.735090000000     0.427330000000     0.956180000000     0.141885   
H760     H      0.756340000000     0.538920000000     0.904050000000     0.204568   
H761     H      0.786270000000     0.108370000000     0.966610000000     0.125699   
H762     H      0.784660000000     0.135480000000     0.024060000000     0.190554   
H763     H      0.811590000000     0.111700000000     0.608820000000     0.14476    
H764     H      0.798160000000     0.032850000000     0.644540000000     0.20536    
H765     H      0.744030000000     0.506430000000     0.920560000000     0.202641   
H766     H      0.812350000000     0.140430000000     0.050950000000     0.197319   
H767     H      0.794230000000     0.997990000000     0.660190000000     0.21044    
H768     H      0.732070000000     0.398370000000     0.517160000000     0.196224   
H769     H      0.885980000000     0.381890000000     0.975910000000     0.0301732  
H770     H      0.890370000000     0.427690000000     0.480290000000     0.0385086  
H771     H      0.889710000000     0.342870000000     0.028450000000     0.098573   
H772     H      0.884050000000     0.428430000000     0.535450000000     0.0615601  
H773     H      0.864680000000     0.390430000000     0.034910000000     0.0526875  
H774     H      0.921070000000     0.395190000000     0.557050000000     0.0312054  
H775     H      0.933300000000     0.394190000000     0.015340000000     0.0405542  
H776     H      0.832490000000     0.391830000000     0.476160000000     0.0981926  
H777     H      0.932250000000     0.052930000000     0.559130000000     0.0328285  
H778     H      0.931240000000     0.066060000000     0.019580000000     0.0321505  
H779     H      0.923530000000     0.154420000000     0.543500000000     0.096461   
H780     H      0.950910000000     0.104430000000     0.078100000000     0.0605791  
H781     H      0.976750000000     0.083970000000     0.557570000000     0.0506436  
H782     H      0.950500000000     0.115110000000     0.007380000000     0.0241462  
H783     H      0.985830000000     0.125500000000     0.527580000000     0.0394013  
H784     H      0.897500000000     0.107240000000     0.060570000000     0.0982261  
H785     H      0.649300000000     0.433930000000     0.468780000000     0.0255081  
H786     H      0.653120000000     0.411270000000     0.503690000000     0.0299725  
H787     H      0.625870000000     0.384000000000     0.038810000000     0.0998419  
H788     H      0.594920000000     0.444110000000     0.980240000000     0.0483366  
H789     H      0.603580000000     0.404660000000     0.973670000000     0.0494294  
H790     H      0.565160000000     0.414550000000     0.519030000000     0.0382961  
H791     H      0.596090000000     0.431900000000     0.539940000000     0.0284888  
H792     H      0.628090000000     0.472150000000     0.018180000000     0.097625   
H793     H      0.658860000000     0.106150000000     0.087780000000     0.0359161  
H794     H      0.660840000000     0.136670000000     0.615460000000     0.0217231  
H795     H      0.658830000000     0.196820000000     0.033280000000     0.100154   
H796     H      0.681160000000     0.171590000000     0.576820000000     0.0539807  
H797     H      0.684390000000     0.141320000000     0.046500000000     0.0603436  
H798     H      0.621560000000     0.155950000000     0.575300000000     0.0350687  
H799     H      0.630370000000     0.139610000000     0.039250000000     0.0354825  
H800     H      0.716250000000     0.135780000000     0.614050000000     0.0958286  
H801     H      0.831710000000     0.517020000000     0.883270000000     0.0337917  
H802     H      0.846640000000     0.055540000000     0.885390000000     0.0305074  
H803     H      0.927040000000     0.487160000000     0.901330000000     0.102134   
H804     H      0.869710000000     0.026380000000     0.841040000000     0.0530186  
H805     H      0.896930000000     0.540320000000     0.866640000000     0.057808   
H806     H      0.888850000000     0.978220000000     0.845420000000     0.0345796  
H807     H      0.876120000000     0.477030000000     0.884380000000     0.0310939  
H808     H      0.887170000000     0.021570000000     0.925500000000     0.101974   
H809     H      0.579170000000     0.042970000000     0.944050000000     0.0353143  
H810     H      0.588340000000     0.504740000000     0.939280000000     0.0326346  
H811     H      0.669600000000     0.080020000000     0.936350000000     0.0980437  
H812     H      0.612610000000     0.524170000000     0.986170000000     0.0509975  
H813     H      0.644430000000     0.018520000000     0.960060000000     0.0563335  
H814     H      0.630050000000     0.572420000000     0.993580000000     0.0381905  
H815     H      0.618600000000     0.082500000000     0.955170000000     0.0285094  
H816     H      0.631380000000     0.542420000000     0.903710000000     0.0986288  
H817     H      0.642130000000     0.010000000000     0.624850000000     0.0354271  
H818     H      0.639370000000     0.508930000000     0.665760000000     0.0333428  
H819     H      0.656260000000     0.064570000000     0.710240000000     0.0957177  
H820     H      0.676060000000     0.559920000000     0.658610000000     0.0545888  
H821     H      0.659320000000     0.060700000000     0.624730000000     0.0615824  
H822     H      0.604750000000     0.558400000000     0.656770000000     0.0411141  
H823     H      0.630680000000     0.089910000000     0.661370000000     0.0256944  
H824     H      0.690150000000     0.493280000000     0.662470000000     0.0993814  
H825     H      0.868880000000     0.973600000000     0.648380000000     0.0390758  
H826     H      0.895210000000     0.454100000000     0.646440000000     0.0255189  
H827     H      0.955360000000     0.033610000000     0.652250000000     0.10051    
H828     H      0.933160000000     0.490650000000     0.627180000000     0.0548759  
H829     H      0.904870000000     0.013940000000     0.623570000000     0.0554702  
H830     H      0.918570000000     0.489690000000     0.686920000000     0.0317465  
H831     H      0.898760000000     0.018990000000     0.679380000000     0.0333333  
H832     H      0.900060000000     0.462530000000     0.588530000000     0.0968636  
H833     H      0.477500000000     0.137950000000     0.882480000000     0.0379352  
H834     H      0.948770000000     0.126040000000     0.913450000000     0.0228157  
H835     H      0.551450000000     0.139610000000     0.961580000000     0.101714   
H836     H      0.976390000000     0.169860000000     0.932700000000     0.043811   
H837     H      0.489340000000     0.135700000000     0.953850000000     0.0523329  
H838     H      0.023340000000     0.176810000000     0.906240000000     0.0363851  
H839     H      0.535260000000     0.135990000000     0.909200000000     0.0361688  
H840     H      0.984970000000     0.084510000000     0.928600000000     0.100317   
H841     H      0.996320000000     0.332010000000     0.893640000000     0.0415222  
H842     H      0.989930000000     0.371280000000     0.885510000000     0.0380999  
H843     H      0.533930000000     0.416090000000     0.898510000000     0.100549   
H844     H      0.554870000000     0.362500000000     0.907550000000     0.0514163  
H845     H      0.546520000000     0.335170000000     0.877680000000     0.0453572  
H846     H      0.027750000000     0.377620000000     0.841520000000     0.0366655  
H847     H      0.067530000000     0.381490000000     0.852940000000     0.0275069  
H848     H      0.499350000000     0.384300000000     0.938820000000     0.101102   
H849     H      0.090500000000     0.421760000000     0.671320000000     0.0295487  
H850     H      0.051330000000     0.412120000000     0.681050000000     0.0367701  
H851     H      0.513610000000     0.371580000000     0.653610000000     0.0982746  
H852     H      0.570730000000     0.427850000000     0.614730000000     0.0510419  
H853     H      0.572180000000     0.389260000000     0.627630000000     0.056915   
H854     H      0.023570000000     0.414540000000     0.596630000000     0.0385236  
H855     H      0.012450000000     0.428200000000     0.634810000000     0.0274645  
H856     H      0.556950000000     0.467960000000     0.647320000000     0.0997229  
H857     H      0.479360000000     0.168820000000     0.720580000000     0.0276861  
H858     H      0.517600000000     0.170770000000     0.737050000000     0.0346465  
H859     H      0.051360000000     0.157610000000     0.642400000000     0.0998075  
H860     H      0.997780000000     0.194630000000     0.673590000000     0.0661771  
H861     H      0.013040000000     0.217200000000     0.704820000000     0.0434949  
H862     H      0.559930000000     0.169470000000     0.693050000000     0.0262471  
H863     H      0.559830000000     0.208290000000     0.681280000000     0.0276736  
H864     H      0.510180000000     0.131620000000     0.679100000000     0.104054   
H865     H      0.965960000000     0.554130000000     0.333300000000     0.207518   
H866     H      0.567300000000     0.589730000000     0.258790000000     0.203151   
H867     H      0.584170000000     0.982210000000     0.332150000000     0.207925   
H868     H      0.998810000000     0.979440000000     0.229160000000     0.211746   
H869     H      0.557080000000     0.627950000000     0.324380000000     0.130393   
H870     H      0.615750000000     0.601170000000     0.310750000000     0.185081   
H871     H      0.653630000000     0.019910000000     0.304110000000     0.139623   
H872     H      0.605060000000     0.931950000000     0.297080000000     0.200048   
H873     H      0.000970000000     0.919510000000     0.260570000000     0.122716   
H874     H      0.942580000000     0.949460000000     0.263920000000     0.185537   
H875     H      0.925110000000     0.561090000000     0.263700000000     0.14895    
H876     H      0.946040000000     0.603960000000     0.305210000000     0.194103   
H877     H      0.611810000000     0.947080000000     0.261640000000     0.210164   
H878     H      0.911950000000     0.971760000000     0.270780000000     0.203494   
H879     H      0.964080000000     0.636470000000     0.295770000000     0.204276   
H880     H      0.645030000000     0.576350000000     0.312980000000     0.194913   
H881     H      0.972420000000     0.807980000000     0.084180000000     0.209086   
H882     H      0.986500000000     0.713190000000     0.498920000000     0.20274    
H883     H      0.568490000000     0.813610000000     0.485050000000     0.208978   
H884     H      0.581890000000     0.736250000000     0.088290000000     0.203324   
H885     H      0.926420000000     0.743770000000     0.489910000000     0.12483    
H886     H      0.969350000000     0.745560000000     0.436790000000     0.183591   
H887     H      0.584520000000     0.746660000000     0.439920000000     0.147209   
H888     H      0.631600000000     0.767830000000     0.478170000000     0.203686   
H889     H      0.624860000000     0.786770000000     0.090980000000     0.124525   
H890     H      0.582550000000     0.788200000000     0.144330000000     0.186023   
H891     H      0.993050000000     0.763770000000     0.158050000000     0.141922   
H892     H      0.930210000000     0.738420000000     0.098600000000     0.209172   
H893     H      0.632310000000     0.805520000000     0.484580000000     0.197865   
H894     H      0.553420000000     0.780540000000     0.168880000000     0.195275   
H895     H      0.918700000000     0.774300000000     0.091730000000     0.199865   
H896     H      0.996170000000     0.758320000000     0.411730000000     0.203528   
H897     H      0.749880000000     0.548670000000     0.102790000000     0.211345   
H898     H      0.810000000000     0.946890000000     0.049890000000     0.20074    
H899     H      0.717270000000     0.005970000000     0.478980000000     0.207756   
H900     H      0.821170000000     0.573200000000     0.492650000000     0.202679   
H901     H      0.768060000000     0.927420000000     0.099570000000     0.12597    
H902     H      0.757820000000     0.901140000000     0.042220000000     0.185008   
H903     H      0.737530000000     0.928890000000     0.455610000000     0.141926   
H904     H      0.758080000000     0.041430000000     0.405100000000     0.203919   
H905     H      0.779030000000     0.607650000000     0.458180000000     0.124066   
H906     H      0.781200000000     0.637700000000     0.513230000000     0.188503   
H907     H      0.811030000000     0.611630000000     0.106600000000     0.144725   
H908     H      0.797540000000     0.533320000000     0.143290000000     0.204553   
H909     H      0.745950000000     0.008610000000     0.421050000000     0.201079   
H910     H      0.801380000000     0.646330000000     0.545540000000     0.196929   
H911     H      0.792780000000     0.498850000000     0.159590000000     0.204898   
H912     H      0.733240000000     0.897440000000     0.012150000000     0.195958   
H913     H      0.888240000000     0.883460000000     0.476710000000     0.030333   
H914     H      0.892810000000     0.923240000000     0.976700000000     0.0384901  
H915     H      0.890720000000     0.844030000000     0.530160000000     0.0986456  
H916     H      0.886410000000     0.926620000000     0.031890000000     0.0650582  
H917     H      0.865500000000     0.891470000000     0.535150000000     0.0523361  
H918     H      0.922470000000     0.893350000000     0.055120000000     0.0308332  
H919     H      0.934540000000     0.895420000000     0.517320000000     0.0414508  
H920     H      0.834120000000     0.889570000000     0.972520000000     0.0984764  
H921     H      0.930820000000     0.551120000000     0.056810000000     0.0337795  
H922     H      0.929240000000     0.584080000000     0.516010000000     0.0295793  
H923     H      0.923820000000     0.652600000000     0.041580000000     0.0963635  
H924     H      0.934600000000     0.603830000000     0.585320000000     0.0583189  
H925     H      0.975670000000     0.581510000000     0.055990000000     0.0508074  
H926     H      0.971140000000     0.616550000000     0.523980000000     0.0291027  
H927     H      0.985900000000     0.622870000000     0.026140000000     0.0393851  
H928     H      0.889470000000     0.615340000000     0.553140000000     0.0969279  
H929     H      0.652070000000     0.935660000000     0.968450000000     0.0257332  
H930     H      0.655930000000     0.912400000000     0.002390000000     0.028152   
H931     H      0.631590000000     0.882600000000     0.537330000000     0.100462   
H932     H      0.596380000000     0.942980000000     0.481160000000     0.0494013  
H933     H      0.606260000000     0.903970000000     0.473620000000     0.050656   
H934     H      0.567840000000     0.915470000000     0.018550000000     0.03862    
H935     H      0.599440000000     0.931960000000     0.039760000000     0.0292378  
H936     H      0.629960000000     0.972300000000     0.517100000000     0.0988128  
H937     H      0.650860000000     0.603140000000     0.585420000000     0.0377142  
H938     H      0.660470000000     0.638150000000     0.112900000000     0.0218187  
H939     H      0.669220000000     0.696290000000     0.532650000000     0.100099   
H940     H      0.681480000000     0.671230000000     0.072480000000     0.0542269  
H941     H      0.656990000000     0.672720000000     0.593710000000     0.0533273  
H942     H      0.621310000000     0.655350000000     0.071950000000     0.0355827  
H943     H      0.669820000000     0.643340000000     0.538170000000     0.0354138  
H944     H      0.715880000000     0.636620000000     0.111490000000     0.096038   
H945     H      0.833090000000     0.018800000000     0.384770000000     0.0326338  
H946     H      0.841150000000     0.555060000000     0.381700000000     0.0308722  
H947     H      0.928420000000     0.988270000000     0.402860000000     0.104173   
H948     H      0.866650000000     0.525800000000     0.338870000000     0.0531287  
H949     H      0.898490000000     0.040970000000     0.367350000000     0.0575453  
H950     H      0.887110000000     0.478380000000     0.345150000000     0.0344108  
H951     H      0.877220000000     0.978300000000     0.386720000000     0.0316744  
H952     H      0.882290000000     0.524060000000     0.423640000000     0.10336    
H953     H      0.573530000000     0.539660000000     0.441950000000     0.036108   
H954     H      0.592480000000     0.003610000000     0.440420000000     0.0310154  
H955     H      0.662550000000     0.578010000000     0.432940000000     0.0981878  
H956     H      0.614970000000     0.024710000000     0.487600000000     0.0495517  
H957     H      0.638200000000     0.517040000000     0.462280000000     0.0581661  
H958     H      0.631420000000     0.073400000000     0.494330000000     0.0371771  
H959     H      0.611860000000     0.580840000000     0.452750000000     0.0276076  
H960     H      0.634850000000     0.042070000000     0.405120000000     0.0983939  
H961     H      0.641160000000     0.511210000000     0.124410000000     0.0369607  
H962     H      0.643650000000     0.007770000000     0.167350000000     0.0316612  
H963     H      0.655190000000     0.564040000000     0.210750000000     0.0960274  
H964     H      0.680740000000     0.058230000000     0.160950000000     0.0555696  
H965     H      0.658840000000     0.561770000000     0.125130000000     0.0612043  
H966     H      0.609390000000     0.057260000000     0.157680000000     0.0408148  
H967     H      0.630350000000     0.590700000000     0.162220000000     0.0257879  
H968     H      0.694160000000     0.991160000000     0.164210000000     0.103698   
H969     H      0.867390000000     0.473160000000     0.147830000000     0.0372222  
H970     H      0.900160000000     0.946060000000     0.146690000000     0.0257122  
H971     H      0.954210000000     0.532690000000     0.151710000000     0.101593   
H972     H      0.934790000000     0.985520000000     0.127460000000     0.0539191  
H973     H      0.903380000000     0.513510000000     0.123180000000     0.0615604  
H974     H      0.920420000000     0.983520000000     0.187470000000     0.0369755  
H975     H      0.897440000000     0.518360000000     0.179070000000     0.0316339  
H976     H      0.903100000000     0.953710000000     0.089220000000     0.0971292  
H977     H      0.479810000000     0.638570000000     0.383230000000     0.0382611  
H978     H      0.951460000000     0.630990000000     0.410500000000     0.0234903  
H979     H      0.557420000000     0.636340000000     0.459550000000     0.100184   
H980     H      0.979740000000     0.672570000000     0.433550000000     0.044978   
H981     H      0.494330000000     0.633900000000     0.454010000000     0.052623   
H982     H      0.028610000000     0.677370000000     0.409920000000     0.0364138  
H983     H      0.538460000000     0.632310000000     0.408310000000     0.0350816  
H984     H      0.986080000000     0.587760000000     0.427920000000     0.100935   
H985     H      0.998910000000     0.831590000000     0.395470000000     0.0416639  
H986     H      0.991720000000     0.870620000000     0.386840000000     0.0382575  
H987     H      0.539340000000     0.913820000000     0.398390000000     0.101035   
H988     H      0.560840000000     0.860560000000     0.407100000000     0.0559638  
H989     H      0.552890000000     0.833230000000     0.377120000000     0.0512041  
H990     H      0.029690000000     0.877430000000     0.343300000000     0.0368928  
H991     H      0.069360000000     0.881980000000     0.354830000000     0.0280381  
H992     H      0.505190000000     0.881190000000     0.438670000000     0.10121    
H993     H      0.089970000000     0.919260000000     0.173900000000     0.0301273  
H994     H      0.050330000000     0.909500000000     0.181230000000     0.0358874  
H995     H      0.518510000000     0.872750000000     0.154730000000     0.0984225  
H996     H      0.575140000000     0.928710000000     0.114470000000     0.0513881  
H997     H      0.576670000000     0.890000000000     0.127040000000     0.0569441  
H998     H      0.027870000000     0.911430000000     0.095050000000     0.0390426  
H999     H      0.014290000000     0.925230000000     0.132340000000     0.0281945  
H1000    H      0.562480000000     0.968690000000     0.147810000000     0.100853   
H1001    H      0.481890000000     0.671200000000     0.221290000000     0.0276921  
H1002    H      0.520400000000     0.671690000000     0.237210000000     0.0344928  
H1003    H      0.052430000000     0.654620000000     0.139120000000     0.0997319  
H1004    H      0.000060000000     0.693700000000     0.170800000000     0.0582693  
H1005    H      0.016620000000     0.716200000000     0.201400000000     0.0418451  
H1006    H      0.562140000000     0.669650000000     0.192710000000     0.0260596  
H1007    H      0.563010000000     0.708510000000     0.181010000000     0.0275343  
H1008    H      0.511350000000     0.633460000000     0.178990000000     0.104268   
H1009    H      0.967130000000     0.553320000000     0.833820000000     0.208151   
H1010    H      0.565670000000     0.590440000000     0.757720000000     0.203546   
H1011    H      0.582350000000     0.982470000000     0.832740000000     0.207994   
H1012    H      0.999600000000     0.980710000000     0.728550000000     0.211693   
H1013    H      0.556270000000     0.629680000000     0.820470000000     0.128785   
H1014    H      0.614730000000     0.603380000000     0.808690000000     0.184783   
H1015    H      0.652440000000     0.018780000000     0.804130000000     0.139769   
H1016    H      0.602230000000     0.931460000000     0.798230000000     0.199829   
H1017    H      0.002320000000     0.920440000000     0.758950000000     0.122605   
H1018    H      0.943680000000     0.949710000000     0.762750000000     0.18565    
H1019    H      0.926590000000     0.561980000000     0.765430000000     0.147673   
H1020    H      0.947780000000     0.604780000000     0.805430000000     0.193319   
H1021    H      0.609380000000     0.946330000000     0.762760000000     0.210083   
H1022    H      0.912760000000     0.971580000000     0.769700000000     0.203378   
H1023    H      0.966760000000     0.637520000000     0.799300000000     0.204001   
H1024    H      0.644200000000     0.578830000000     0.811490000000     0.194655   
H1025    H      0.972710000000     0.809980000000     0.586900000000     0.209177   
H1026    H      0.984950000000     0.712680000000     0.994190000000     0.204043   
H1027    H      0.562280000000     0.815720000000     0.985010000000     0.202228   
H1028    H      0.589280000000     0.734560000000     0.588540000000     0.202111   
H1029    H      0.924740000000     0.744040000000     0.986510000000     0.126281   
H1030    H      0.967950000000     0.746100000000     0.933000000000     0.183824   
H1031    H      0.566290000000     0.788240000000     0.931870000000     0.135591   
H1032    H      0.620660000000     0.769940000000     0.975190000000     0.209455   
H1033    H      0.631310000000     0.786040000000     0.591420000000     0.124318   
H1034    H      0.588220000000     0.786810000000     0.644090000000     0.185907   
H1035    H      0.993600000000     0.766990000000     0.661610000000     0.14213    
H1036    H      0.931060000000     0.740810000000     0.602480000000     0.209329   
H1037    H      0.630700000000     0.804860000000     0.987440000000     0.199148   
H1038    H      0.559440000000     0.777660000000     0.668530000000     0.194769   
H1039    H      0.918670000000     0.776110000000     0.594200000000     0.199993   
H1040    H      0.994890000000     0.758850000000     0.908070000000     0.203584   
H1041    H      0.744610000000     0.554810000000     0.599770000000     0.212141   
H1042    H      0.810980000000     0.947630000000     0.549600000000     0.200662   
H1043    H      0.716630000000     0.005540000000     0.979100000000     0.207939   
H1044    H      0.826910000000     0.569970000000     0.996600000000     0.204524   
H1045    H      0.769130000000     0.927520000000     0.599000000000     0.125901   
H1046    H      0.759200000000     0.901520000000     0.541490000000     0.185566   
H1047    H      0.736210000000     0.928070000000     0.956230000000     0.141996   
H1048    H      0.757600000000     0.040130000000     0.904910000000     0.20431    
H1049    H      0.785010000000     0.607690000000     0.965120000000     0.125615   
H1050    H      0.783450000000     0.635160000000     0.022420000000     0.190063   
H1051    H      0.802020000000     0.618240000000     0.602030000000     0.142866   
H1052    H      0.805790000000     0.537770000000     0.639250000000     0.210126   
H1053    H      0.745280000000     0.007510000000     0.921120000000     0.201082   
H1054    H      0.810840000000     0.640480000000     0.049560000000     0.197126   
H1055    H      0.777370000000     0.519070000000     0.657570000000     0.20335    
H1056    H      0.734790000000     0.897780000000     0.511290000000     0.19666    
H1057    H      0.886900000000     0.882370000000     0.975860000000     0.0302296  
H1058    H      0.894280000000     0.924310000000     0.478280000000     0.038735   
H1059    H      0.890550000000     0.843550000000     0.028290000000     0.0986098  
H1060    H      0.885780000000     0.926990000000     0.533290000000     0.0646432  
H1061    H      0.865860000000     0.891310000000     0.034980000000     0.0527632  
H1062    H      0.921660000000     0.894160000000     0.557080000000     0.0306771  
H1063    H      0.934400000000     0.894620000000     0.015050000000     0.0407853  
H1064    H      0.835560000000     0.890840000000     0.472030000000     0.098199   
H1065    H      0.922720000000     0.555380000000     0.544980000000     0.0377445  
H1066    H      0.930500000000     0.566680000000     0.018210000000     0.032395   
H1067    H      0.926400000000     0.653090000000     0.550340000000     0.0974697  
H1068    H      0.949230000000     0.604500000000     0.077420000000     0.0606155  
H1069    H      0.962470000000     0.577650000000     0.570990000000     0.0489085  
H1070    H      0.950300000000     0.615640000000     0.006830000000     0.0242844  
H1071    H      0.987900000000     0.622520000000     0.561530000000     0.0422635  
H1072    H      0.896250000000     0.607680000000     0.058550000000     0.0980847  
H1073    H      0.652090000000     0.935920000000     0.467390000000     0.0258666  
H1074    H      0.657740000000     0.912250000000     0.501320000000     0.0301037  
H1075    H      0.627880000000     0.882700000000     0.036010000000     0.0995953  
H1076    H      0.595830000000     0.944790000000     0.980470000000     0.0495803  
H1077    H      0.604880000000     0.905660000000     0.972580000000     0.050067   
H1078    H      0.570580000000     0.913840000000     0.520850000000     0.0388338  
H1079    H      0.602140000000     0.931160000000     0.540760000000     0.0293399  
H1080    H      0.629070000000     0.972490000000     0.018280000000     0.0987819  
H1081    H      0.657870000000     0.606280000000     0.086400000000     0.0362146  
H1082    H      0.657620000000     0.623300000000     0.621680000000     0.0211136  
H1083    H      0.658450000000     0.694800000000     0.028250000000     0.100103   
H1084    H      0.621360000000     0.652310000000     0.590000000000     0.0568745  
H1085    H      0.684760000000     0.640530000000     0.044600000000     0.0602026  
H1086    H      0.628390000000     0.641410000000     0.536280000000     0.0401281  
H1087    H      0.631380000000     0.637810000000     0.035160000000     0.0351699  
H1088    H      0.706800000000     0.644440000000     0.599010000000     0.0963786  
H1089    H      0.832980000000     0.017040000000     0.884290000000     0.0324571  
H1090    H      0.845280000000     0.555540000000     0.884620000000     0.0307755  
H1091    H      0.928480000000     0.987050000000     0.902150000000     0.103499   
H1092    H      0.868340000000     0.526620000000     0.840060000000     0.0530097  
H1093    H      0.898300000000     0.040050000000     0.867630000000     0.0576496  
H1094    H      0.887990000000     0.478630000000     0.844150000000     0.0346694  
H1095    H      0.877370000000     0.976990000000     0.885790000000     0.0314535  
H1096    H      0.885910000000     0.521450000000     0.924500000000     0.103382   
H1097    H      0.577060000000     0.543700000000     0.943330000000     0.0354207  
H1098    H      0.591430000000     0.004240000000     0.940700000000     0.030934   
H1099    H      0.668110000000     0.578740000000     0.935420000000     0.0980315  
H1100    H      0.614380000000     0.025190000000     0.987690000000     0.0500348  
H1101    H      0.642130000000     0.517800000000     0.957880000000     0.0572213  
H1102    H      0.631370000000     0.073730000000     0.994210000000     0.0377896  
H1103    H      0.617300000000     0.582140000000     0.954770000000     0.0287046  
H1104    H      0.634220000000     0.041900000000     0.905090000000     0.0984563  
H1105    H      0.637330000000     0.512450000000     0.623590000000     0.0367003  
H1106    H      0.643870000000     0.006380000000     0.667020000000     0.0312812  
H1107    H      0.652910000000     0.566890000000     0.709020000000     0.0957261  
H1108    H      0.680230000000     0.057440000000     0.660730000000     0.0555322  
H1109    H      0.654260000000     0.562950000000     0.623140000000     0.0597892  
H1110    H      0.608900000000     0.055300000000     0.657530000000     0.0407122  
H1111    H      0.627090000000     0.592600000000     0.660910000000     0.0238152  
H1112    H      0.694610000000     0.990470000000     0.664000000000     0.103661   
H1113    H      0.865320000000     0.483020000000     0.647520000000     0.0376415  
H1114    H      0.901040000000     0.947200000000     0.646570000000     0.0257204  
H1115    H      0.955790000000     0.536650000000     0.652250000000     0.100807   
H1116    H      0.935670000000     0.986610000000     0.627440000000     0.0539928  
H1117    H      0.904580000000     0.520300000000     0.623460000000     0.0590258  
H1118    H      0.920740000000     0.985050000000     0.687350000000     0.0372492  
H1119    H      0.898620000000     0.524970000000     0.679520000000     0.0305594  
H1120    H      0.903960000000     0.954870000000     0.589050000000     0.0972711  
H1121    H      0.474960000000     0.638920000000     0.880950000000     0.0386473  
H1122    H      0.948320000000     0.626230000000     0.913760000000     0.0227537  
H1123    H      0.548900000000     0.639400000000     0.959930000000     0.101903   
H1124    H      0.976250000000     0.669990000000     0.932650000000     0.0436509  
H1125    H      0.486630000000     0.636610000000     0.952350000000     0.0523625  
H1126    H      0.023070000000     0.676670000000     0.905890000000     0.0366147  
H1127    H      0.532590000000     0.636590000000     0.907530000000     0.0369448  
H1128    H      0.984020000000     0.584430000000     0.928710000000     0.100678   
H1129    H      0.998110000000     0.832280000000     0.893030000000     0.041502   
H1130    H      0.991840000000     0.871580000000     0.884940000000     0.0382615  
H1131    H      0.536510000000     0.915280000000     0.899520000000     0.101013   
H1132    H      0.555120000000     0.860720000000     0.908290000000     0.051322   
H1133    H      0.545730000000     0.834050000000     0.878110000000     0.0456413  
H1134    H      0.030310000000     0.877900000000     0.841470000000     0.0369289  
H1135    H      0.069910000000     0.881860000000     0.853520000000     0.0280312  
H1136    H      0.499790000000     0.884830000000     0.939280000000     0.101412   
H1137    H      0.091850000000     0.922070000000     0.671410000000     0.0298506  
H1138    H      0.052720000000     0.911990000000     0.680820000000     0.0365078  
H1139    H      0.520830000000     0.869160000000     0.654390000000     0.0983693  
H1140    H      0.575560000000     0.927910000000     0.616300000000     0.0515315  
H1141    H      0.578450000000     0.889450000000     0.629350000000     0.0568087  
H1142    H      0.025780000000     0.914430000000     0.595960000000     0.0390379  
H1143    H      0.014220000000     0.928590000000     0.633820000000     0.0280963  
H1144    H      0.559800000000     0.967520000000     0.648500000000     0.100855   
H1145    H      0.483680000000     0.672820000000     0.718120000000     0.0275364  
H1146    H      0.521460000000     0.671230000000     0.735700000000     0.0345684  
H1147    H      0.054860000000     0.658410000000     0.644430000000     0.099791   
H1148    H      0.000880000000     0.696070000000     0.674940000000     0.0582642  
H1149    H      0.016040000000     0.718200000000     0.706550000000     0.0419947  
H1150    H      0.564930000000     0.666050000000     0.693480000000     0.0253696  
H1151    H      0.568660000000     0.704810000000     0.681900000000     0.0265271  
H1152    H      0.511750000000     0.632770000000     0.677600000000     0.104397   
N1       N      0.410670000000     0.352390000000     0.028610000000    -0.215436   
N2       N      0.343810000000     0.407200000000     0.479480000000    -0.216141   
N3       N      0.447450000000     0.150140000000     0.041000000000    -0.213211   
N4       N      0.398920000000     0.084930000000     0.051920000000    -0.21504    
N5       N      0.102950000000     0.388420000000     0.534490000000    -0.216245   
N6       N      0.146670000000     0.461370000000     0.512100000000    -0.216746   
N7       N      0.138410000000     0.189680000000     0.541400000000    -0.217748   
N8       N      0.204280000000     0.120820000000     0.099240000000    -0.219023   
N9       N      0.425870000000     0.985130000000     0.378590000000    -0.215917   
N10      N      0.361980000000     0.525970000000     0.418450000000    -0.21563    
N11      N      0.164960000000     0.572320000000     0.459010000000    -0.214723   
N12      N      0.109430000000     0.536330000000     0.407570000000    -0.214151   
N13      N      0.133440000000     0.562110000000     0.200490000000    -0.214658   
N14      N      0.185780000000     0.002720000000     0.143920000000    -0.218298   
N15      N      0.447720000000     0.019640000000     0.173150000000    -0.216298   
N16      N      0.383670000000     0.959900000000     0.102540000000    -0.21615    
N17      N      0.041680000000     0.161900000000     0.452410000000    -0.216162   
N18      N      0.487890000000     0.093610000000     0.407430000000    -0.215385   
N19      N      0.036990000000     0.414920000000     0.375440000000    -0.215157   
N20      N      0.002920000000     0.364050000000     0.433750000000    -0.21807    
N21      N      0.515020000000     0.377700000000     0.130390000000    -0.215602   
N22      N      0.057630000000     0.456280000000     0.168790000000    -0.215521   
N23      N      0.545780000000     0.178120000000     0.147060000000    -0.218643   
N24      N      0.509990000000     0.135200000000     0.203950000000    -0.216506   
N25      N      0.409940000000     0.350390000000     0.528090000000    -0.215279   
N26      N      0.344780000000     0.408630000000     0.979630000000    -0.216193   
N27      N      0.447660000000     0.148140000000     0.539930000000    -0.21304    
N28      N      0.400350000000     0.082270000000     0.551110000000    -0.215071   
N29      N      0.103530000000     0.385960000000     0.030930000000    -0.21633    
N30      N      0.146660000000     0.460100000000     0.010640000000    -0.217752   
N31      N      0.138790000000     0.187030000000     0.037900000000    -0.217915   
N32      N      0.206110000000     0.120870000000     0.596590000000    -0.219017   
N33      N      0.423900000000     0.989070000000     0.879280000000    -0.215795   
N34      N      0.362130000000     0.527730000000     0.920250000000    -0.215631   
N35      N      0.164110000000     0.572070000000     0.959510000000    -0.215065   
N36      N      0.109980000000     0.534850000000     0.908650000000    -0.214873   
N37      N      0.135280000000     0.563400000000     0.701970000000    -0.214094   
N38      N      0.186360000000     0.004070000000     0.644460000000    -0.218004   
N39      N      0.446320000000     0.020960000000     0.673650000000    -0.216397   
N40      N      0.383790000000     0.957950000000     0.604730000000    -0.216261   
N41      N      0.041290000000     0.160010000000     0.949440000000    -0.216261   
N42      N      0.488120000000     0.096080000000     0.907180000000    -0.21542    
N43      N      0.037350000000     0.413350000000     0.873870000000    -0.215297   
N44      N      0.003250000000     0.362280000000     0.932090000000    -0.214361   
N45      N      0.515280000000     0.376010000000     0.629530000000    -0.215305   
N46      N      0.059390000000     0.458440000000     0.668070000000    -0.215597   
N47      N      0.546710000000     0.176780000000     0.645870000000    -0.218767   
N48      N      0.510340000000     0.135540000000     0.703340000000    -0.216591   
N49      N      0.412110000000     0.853270000000     0.031140000000    -0.215484   
N50      N      0.346790000000     0.903790000000     0.485220000000    -0.215476   
N51      N      0.447060000000     0.650690000000     0.041910000000    -0.213      
N52      N      0.397680000000     0.585120000000     0.050760000000    -0.2149     
N53      N      0.104210000000     0.888040000000     0.533500000000    -0.216484   
N54      N      0.148540000000     0.959240000000     0.510670000000    -0.21665    
N55      N      0.140500000000     0.689560000000     0.542190000000    -0.218197   
N56      N      0.203520000000     0.620400000000     0.100000000000    -0.219131   
N57      N      0.420020000000     0.488360000000     0.375750000000    -0.215895   
N58      N      0.365710000000     0.021440000000     0.421860000000    -0.215968   
N59      N      0.168190000000     0.069760000000     0.457770000000    -0.214886   
N60      N      0.111880000000     0.034470000000     0.407050000000    -0.214733   
N61      N      0.134240000000     0.062210000000     0.200080000000    -0.214808   
N62      N      0.185510000000     0.502510000000     0.144160000000    -0.215795   
N63      N      0.445450000000     0.522710000000     0.170870000000    -0.217734   
N64      N      0.383160000000     0.460300000000     0.100910000000    -0.217067   
N65      N      0.042560000000     0.660280000000     0.454500000000    -0.216281   
N66      N      0.488140000000     0.595600000000     0.406820000000    -0.215387   
N67      N      0.038670000000     0.913680000000     0.375250000000    -0.214806   
N68      N      0.004700000000     0.862410000000     0.433650000000    -0.214288   
N69      N      0.519700000000     0.877210000000     0.130630000000    -0.21536    
N70      N      0.058890000000     0.955750000000     0.168560000000    -0.215348   
N71      N      0.548490000000     0.677490000000     0.145730000000    -0.218716   
N72      N      0.511480000000     0.637090000000     0.203280000000    -0.216741   
N73      N      0.416650000000     0.847210000000     0.529620000000    -0.21462    
N74      N      0.346480000000     0.908350000000     0.981380000000    -0.216132   
N75      N      0.457210000000     0.645530000000     0.544120000000    -0.212294   
N76      N      0.399680000000     0.584470000000     0.546670000000    -0.214409   
N77      N      0.104670000000     0.885450000000     0.030530000000    -0.216202   
N78      N      0.148080000000     0.959890000000     0.010590000000    -0.217373   
N79      N      0.138700000000     0.686320000000     0.037490000000    -0.217869   
N80      N      0.206910000000     0.621460000000     0.600010000000    -0.21916    
N81      N      0.420860000000     0.489660000000     0.877770000000    -0.215816   
N82      N      0.364420000000     0.027050000000     0.921590000000    -0.215963   
N83      N      0.166150000000     0.072060000000     0.958920000000    -0.215068   
N84      N      0.111240000000     0.035460000000     0.907680000000    -0.214606   
N85      N      0.134630000000     0.063540000000     0.700750000000    -0.214582   
N86      N      0.187370000000     0.504470000000     0.644490000000    -0.21561    
N87      N      0.444150000000     0.520950000000     0.671850000000    -0.217651   
N88      N      0.383840000000     0.459190000000     0.599760000000    -0.217267   
N89      N      0.041210000000     0.659900000000     0.949010000000    -0.216179   
N90      N      0.485280000000     0.596980000000     0.905660000000    -0.215308   
N91      N      0.039350000000     0.913640000000     0.874010000000    -0.214935   
N92      N      0.004540000000     0.862440000000     0.931660000000    -0.214389   
N93      N      0.522180000000     0.873790000000     0.630330000000    -0.215313   
N94      N      0.060330000000     0.958390000000     0.667950000000    -0.21638    
N95      N      0.554730000000     0.674610000000     0.645730000000    -0.218842   
N96      N      0.511740000000     0.636690000000     0.701850000000    -0.216721   
N97      N      0.911610000000     0.352800000000     0.029900000000    -0.215172   
N98      N      0.844430000000     0.411270000000     0.483660000000    -0.215898   
N99      N      0.948110000000     0.150490000000     0.040880000000    -0.212773   
N100     N      0.898850000000     0.085170000000     0.051230000000    -0.214968   
N101     N      0.601650000000     0.384580000000     0.532810000000    -0.216411   
N102     N      0.644710000000     0.458470000000     0.511060000000    -0.216919   
N103     N      0.637920000000     0.186000000000     0.539830000000    -0.218064   
N104     N      0.704410000000     0.120210000000     0.100130000000    -0.219109   
N105     N      0.923610000000     0.991010000000     0.378960000000    -0.216596   
N106     N      0.859080000000     0.528610000000     0.418860000000    -0.215539   
N107     N      0.659320000000     0.570250000000     0.455940000000    -0.21514    
N108     N      0.607550000000     0.530900000000     0.407290000000    -0.214755   
N109     N      0.633360000000     0.560940000000     0.200770000000    -0.214669   
N110     N      0.686170000000     0.002630000000     0.144250000000    -0.218128   
N111     N      0.946300000000     0.022330000000     0.173090000000    -0.21593    
N112     N      0.884060000000     0.960650000000     0.102540000000    -0.216251   
N113     N      0.541620000000     0.157790000000     0.450490000000    -0.216549   
N114     N      0.989070000000     0.098140000000     0.406910000000    -0.216653   
N115     N      0.534700000000     0.410900000000     0.372530000000    -0.215264   
N116     N      0.502220000000     0.359770000000     0.431540000000    -0.216036   
N117     N      0.017930000000     0.377260000000     0.130150000000    -0.2157     
N118     N      0.558280000000     0.455720000000     0.166900000000    -0.215563   
N119     N      0.048730000000     0.177740000000     0.144820000000    -0.219036   
N120     N      0.011780000000     0.137470000000     0.203130000000    -0.216318   
N121     N      0.911070000000     0.355440000000     0.531130000000    -0.214534   
N122     N      0.845480000000     0.407970000000     0.980750000000    -0.216219   
N123     N      0.947560000000     0.152850000000     0.542630000000    -0.212582   
N124     N      0.898650000000     0.086810000000     0.551860000000    -0.214818   
N125     N      0.602580000000     0.385840000000     0.032770000000    -0.216324   
N126     N      0.647040000000     0.458950000000     0.011270000000    -0.217579   
N127     N      0.638010000000     0.187240000000     0.040910000000    -0.217758   
N128     N      0.703980000000     0.119930000000     0.600550000000    -0.219131   
N129     N      0.923700000000     0.990030000000     0.878270000000    -0.21559    
N130     N      0.862800000000     0.526960000000     0.920300000000    -0.215521   
N131     N      0.664440000000     0.570640000000     0.958230000000    -0.214829   
N132     N      0.608680000000     0.534790000000     0.906490000000    -0.214169   
N133     N      0.631030000000     0.563010000000     0.699480000000    -0.215309   
N134     N      0.686550000000     0.001910000000     0.644050000000    -0.218195   
N135     N      0.946800000000     0.023750000000     0.672900000000    -0.216037   
N136     N      0.884890000000     0.961650000000     0.602400000000    -0.216224   
N137     N      0.541780000000     0.159290000000     0.951680000000    -0.215422   
N138     N      0.986570000000     0.096590000000     0.907460000000    -0.217005   
N139     N      0.536780000000     0.412860000000     0.874330000000    -0.215166   
N140     N      0.503280000000     0.361500000000     0.932630000000    -0.21672    
N141     N      0.016770000000     0.380200000000     0.631620000000    -0.215751   
N142     N      0.556520000000     0.454690000000     0.667770000000    -0.215458   
N143     N      0.047290000000     0.180600000000     0.647680000000    -0.219041   
N144     N      0.010660000000     0.139110000000     0.704600000000    -0.216243   
N145     N      0.912510000000     0.853350000000     0.029660000000    -0.215283   
N146     N      0.847740000000     0.909680000000     0.480690000000    -0.215952   
N147     N      0.947830000000     0.650840000000     0.040510000000    -0.212593   
N148     N      0.897690000000     0.585470000000     0.049570000000    -0.214738   
N149     N      0.608070000000     0.884100000000     0.532170000000    -0.216117   
N150     N      0.649070000000     0.959120000000     0.510600000000    -0.216543   
N151     N      0.647930000000     0.685950000000     0.537120000000    -0.217787   
N152     N      0.703380000000     0.620350000000     0.098780000000    -0.219128   
N153     N      0.921140000000     0.492310000000     0.378040000000    -0.215516   
N154     N      0.864530000000     0.028930000000     0.421490000000    -0.215848   
N155     N      0.666070000000     0.071900000000     0.459300000000    -0.215028   
N156     N      0.612260000000     0.034080000000     0.407680000000    -0.214622   
N157     N      0.634990000000     0.062630000000     0.200690000000    -0.21478    
N158     N      0.685420000000     0.502510000000     0.143730000000    -0.215724   
N159     N      0.945470000000     0.523120000000     0.172420000000    -0.217333   
N160     N      0.883420000000     0.461210000000     0.101850000000    -0.217118   
N161     N      0.547630000000     0.656140000000     0.450020000000    -0.21636    
N162     N      0.987910000000     0.599600000000     0.406650000000    -0.216845   
N163     N      0.542260000000     0.910810000000     0.374190000000    -0.215042   
N164     N      0.509310000000     0.858470000000     0.432300000000    -0.215862   
N165     N      0.018910000000     0.877240000000     0.129710000000    -0.215595   
N166     N      0.562030000000     0.955160000000     0.168090000000    -0.21517    
N167     N      0.048750000000     0.677660000000     0.144430000000    -0.218536   
N168     N      0.011090000000     0.638310000000     0.202680000000    -0.216104   
N169     N      0.912600000000     0.854010000000     0.531530000000    -0.215153   
N170     N      0.846430000000     0.908470000000     0.980800000000    -0.216182   
N171     N      0.950440000000     0.651940000000     0.550580000000    -0.212741   
N172     N      0.891490000000     0.592600000000     0.545900000000    -0.214839   
N173     N      0.604420000000     0.884890000000     0.030850000000    -0.216255   
N174     N      0.648070000000     0.959470000000     0.011180000000    -0.217417   
N175     N      0.637730000000     0.685610000000     0.036650000000    -0.217596   
N176     N      0.695000000000     0.625360000000     0.590360000000    -0.216975   
N177     N      0.922450000000     0.490370000000     0.877440000000    -0.215521   
N178     N      0.864080000000     0.027160000000     0.921280000000    -0.215864   
N179     N      0.665910000000     0.071740000000     0.959090000000    -0.215049   
N180     N      0.611500000000     0.034310000000     0.907760000000    -0.214522   
N181     N      0.634390000000     0.061000000000     0.700530000000    -0.214769   
N182     N      0.681860000000     0.504500000000     0.642490000000    -0.216384   
N183     N      0.946830000000     0.526960000000     0.672800000000    -0.2175     
N184     N      0.881010000000     0.469370000000     0.601900000000    -0.216873   
N185     N      0.539410000000     0.659290000000     0.950290000000    -0.21533    
N186     N      0.985950000000     0.596580000000     0.907640000000    -0.217009   
N187     N      0.539170000000     0.912080000000     0.875320000000    -0.215155   
N188     N      0.503350000000     0.862000000000     0.932970000000    -0.216651   
N189     N      0.018300000000     0.880540000000     0.631260000000    -0.215843   
N190     N      0.559740000000     0.954340000000     0.669020000000    -0.21523    
N191     N      0.050540000000     0.681390000000     0.649500000000    -0.218467   
N192     N      0.013020000000     0.640120000000     0.705470000000    -0.215849   
O1       O      0.453500000000     0.011770000000     0.225510000000    -0.372537   
O2       O      0.490480000000     0.534410000000     0.194590000000    -0.356782   
O3       O      0.500800000000     0.094210000000     0.355720000000    -0.366384   
O4       O      0.006840000000     0.054480000000     0.384620000000    -0.363068   
O5       O      0.511600000000     0.115140000000     0.253150000000    -0.364956   
O6       O      0.023560000000     0.087570000000     0.209840000000    -0.360226   
O7       O      0.442680000000     0.994710000000     0.329000000000    -0.358845   
O8       O      0.470890000000     0.498120000000     0.368310000000    -0.354669   
O9       O      0.423610000000     0.039700000000     0.281750000000    -0.346902   
O10      O      0.431320000000     0.468860000000     0.266240000000    -0.512804   
O11      O      0.465650000000     0.110210000000     0.301660000000    -0.50826    
O12      O      0.039680000000     0.135780000000     0.313160000000    -0.340113   
O13      O      0.490560000000     0.054910000000     0.260500000000    -0.468897   
O14      O      0.485290000000     0.042390000000     0.320790000000    -0.612213   
O15      O      0.039470000000     0.435360000000     0.326320000000    -0.362594   
O16      O      0.527900000000     0.461920000000     0.366830000000    -0.358758   
O17      O      0.116180000000     0.553300000000     0.249890000000    -0.364874   
O18      O      0.083390000000     0.051770000000     0.208400000000    -0.35724    
O19      O      0.104190000000     0.540710000000     0.354780000000    -0.365267   
O20      O      0.065860000000     0.022230000000     0.384310000000    -0.355678   
O21      O      0.051270000000     0.455520000000     0.222300000000    -0.359364   
O22      O      0.547050000000     0.498980000000     0.192920000000    -0.360091   
O23      O      0.092920000000     0.444880000000     0.279920000000    -0.511282   
O24      O      0.519790000000     0.414510000000     0.262480000000    -0.328516   
O25      O      0.132280000000     0.506950000000     0.299940000000    -0.338331   
O26      O      0.125340000000     0.083280000000     0.308760000000    -0.515464   
O27      O      0.066130000000     0.496250000000     0.319460000000    -0.605654   
O28      O      0.072640000000     0.507960000000     0.258250000000    -0.460447   
O29      O      0.497310000000     0.477040000000     0.309240000000    -0.475725   
O30      O      0.058120000000     0.074140000000     0.268010000000    -0.623234   
O31      O      0.504700000000     0.490890000000     0.244250000000    -0.625523   
O32      O      0.051660000000     0.061590000000     0.333700000000    -0.477473   
O33      O      0.535800000000     0.226460000000     0.130770000000    -0.373884   
O34      O      0.041970000000     0.187440000000     0.092910000000    -0.36042    
O35      O      0.430510000000     0.304490000000     0.032350000000    -0.360643   
O36      O      0.461710000000     0.344490000000     0.532750000000    -0.360906   
O37      O      0.448900000000     0.202210000000     0.042670000000    -0.360049   
O38      O      0.493900000000     0.172820000000     0.543180000000    -0.356162   
O39      O      0.517670000000     0.326710000000     0.122880000000    -0.366773   
O40      O      0.015270000000     0.358670000000     0.080030000000    -0.353628   
O41      O      0.480660000000     0.269480000000     0.138450000000    -0.339257   
O42      O      0.060480000000     0.283150000000     0.147240000000    -0.512438   
O43      O      0.428590000000     0.256030000000     0.085750000000    -0.51133    
O44      O      0.415530000000     0.244260000000     0.507320000000    -0.326902   
O45      O      0.495250000000     0.235550000000     0.078320000000    -0.463446   
O46      O      0.484470000000     0.295740000000     0.072690000000    -0.607711   
O47      O      0.099900000000     0.337240000000     0.539690000000    -0.367739   
O48      O      0.056500000000     0.362610000000     0.028630000000    -0.355527   
O49      O      0.029820000000     0.212540000000     0.458070000000    -0.367687   
O50      O      0.543680000000     0.179140000000     0.498420000000    -0.358655   
O51      O      0.011840000000     0.314830000000     0.448990000000    -0.359631   
O52      O      0.506740000000     0.348910000000     0.483230000000    -0.358029   
O53      O      0.117540000000     0.236490000000     0.537160000000    -0.369049   
O54      O      0.087100000000     0.192620000000     0.043060000000    -0.357275   
O55      O      0.119010000000     0.289550000000     0.493320000000    -0.512891   
O56      O      0.132920000000     0.287750000000     0.069060000000    -0.32879    
O57      O      0.064920000000     0.270820000000     0.438820000000    -0.344138   
O58      O      0.488360000000     0.251750000000     0.429270000000    -0.513076   
O59      O      0.052370000000     0.304530000000     0.501200000000    -0.610074   
O60      O      0.063350000000     0.244870000000     0.506320000000    -0.468536   
O61      O      0.054860000000     0.310130000000     0.070210000000    -0.477342   
O62      O      0.494500000000     0.226400000000     0.506220000000    -0.624232   
O63      O      0.066500000000     0.246640000000     0.074870000000    -0.624143   
O64      O      0.482330000000     0.290040000000     0.500670000000    -0.473525   
O65      O      0.347280000000     0.084140000000     0.055600000000    -0.373285   
O66      O      0.373560000000     0.039270000000     0.535800000000    -0.349492   
O67      O      0.232290000000     0.993550000000     0.121850000000    -0.357033   
O68      O      0.194340000000     0.518750000000     0.094030000000    -0.354181   
O69      O      0.333480000000     0.975220000000     0.102710000000    -0.35724    
O70      O      0.362200000000     0.479540000000     0.056850000000    -0.366592   
O71      O      0.249610000000     0.101770000000     0.082070000000    -0.373042   
O72      O      0.205720000000     0.077110000000     0.567930000000    -0.361763   
O73      O      0.308690000000     0.089130000000     0.109170000000    -0.338298   
O74      O      0.300100000000     0.124990000000     0.538350000000    -0.522647   
O75      O      0.293040000000     0.011680000000     0.142070000000    -0.520049   
O76      O      0.275100000000     0.440760000000     0.115380000000    -0.336432   
O77      O      0.316860000000     0.028130000000     0.072720000000    -0.462307   
O78      O      0.258440000000     0.040630000000     0.084080000000    -0.614833   
O79      O      0.216300000000     0.563300000000     0.462070000000    -0.360105   
O80      O      0.187580000000     0.051430000000     0.503820000000    -0.354573   
O81      O      0.298660000000     0.430920000000     0.489560000000    -0.365237   
O82      O      0.344370000000     0.457570000000     0.998060000000    -0.351131   
O83      O      0.199110000000     0.456530000000     0.508520000000    -0.366719   
O84      O      0.176340000000     0.497270000000     0.031030000000    -0.360738   
O85      O      0.314950000000     0.536420000000     0.440030000000    -0.356186   
O86      O      0.356510000000     0.012320000000     0.473090000000    -0.364323   
O87      O      0.252780000000     0.527460000000     0.422230000000    -0.506825   
O88      O      0.280590000000     0.090810000000     0.447840000000    -0.338046   
O89      O      0.242590000000     0.449270000000     0.454650000000    -0.3418     
O90      O      0.245980000000     0.410020000000     0.023300000000    -0.517978   
O91      O      0.232590000000     0.509390000000     0.492840000000    -0.61199    
O92      O      0.290480000000     0.495410000000     0.480080000000    -0.456445   
O93      O      0.251410000000     0.069170000000     0.518920000000    -0.479585   
O94      O      0.298400000000     0.466020000000     0.044430000000    -0.623268   
O95      O      0.314750000000     0.053740000000     0.507130000000    -0.623756   
O96      O      0.235320000000     0.479540000000     0.057920000000    -0.476513   
O97      O      0.452140000000     0.013460000000     0.726040000000    -0.372732   
O98      O      0.488980000000     0.533630000000     0.695270000000    -0.357571   
O99      O      0.500950000000     0.096030000000     0.855450000000    -0.366057   
O100     O      0.005730000000     0.053660000000     0.884910000000    -0.363694   
O101     O      0.511860000000     0.115870000000     0.752680000000    -0.365137   
O102     O      0.023350000000     0.089320000000     0.710700000000    -0.360321   
O103     O      0.440970000000     0.997600000000     0.829590000000    -0.358945   
O104     O      0.471610000000     0.499380000000     0.869580000000    -0.354088   
O105     O      0.422690000000     0.042150000000     0.781910000000    -0.346542   
O106     O      0.431710000000     0.467540000000     0.768530000000    -0.513107   
O107     O      0.466110000000     0.112300000000     0.801380000000    -0.50817    
O108     O      0.039030000000     0.136220000000     0.814860000000    -0.342636   
O109     O      0.489950000000     0.056140000000     0.760590000000    -0.469076   
O110     O      0.484540000000     0.044230000000     0.820970000000    -0.612487   
O111     O      0.040210000000     0.434560000000     0.825070000000    -0.361987   
O112     O      0.529140000000     0.463740000000     0.868050000000    -0.358561   
O113     O      0.117740000000     0.553940000000     0.751160000000    -0.357683   
O114     O      0.083640000000     0.053590000000     0.708880000000    -0.356447   
O115     O      0.105160000000     0.539760000000     0.855890000000    -0.370297   
O116     O      0.065570000000     0.022640000000     0.884540000000    -0.355545   
O117     O      0.052700000000     0.456700000000     0.721500000000    -0.359451   
O118     O      0.545690000000     0.498340000000     0.693340000000    -0.360251   
O119     O      0.094160000000     0.444940000000     0.779180000000    -0.512944   
O120     O      0.521040000000     0.414590000000     0.764800000000    -0.328234   
O121     O      0.133840000000     0.506600000000     0.799310000000    -0.335076   
O122     O      0.124710000000     0.084990000000     0.809600000000    -0.516204   
O123     O      0.067360000000     0.495540000000     0.819490000000    -0.606951   
O124     O      0.074070000000     0.508400000000     0.758530000000    -0.4605     
O125     O      0.497870000000     0.477620000000     0.810580000000    -0.475011   
O126     O      0.057880000000     0.075530000000     0.768790000000    -0.623182   
O127     O      0.504380000000     0.490510000000     0.745270000000    -0.626274   
O128     O      0.051290000000     0.062110000000     0.834350000000    -0.477977   
O129     O      0.536380000000     0.224990000000     0.629540000000    -0.374598   
O130     O      0.040980000000     0.190090000000     0.595690000000    -0.360617   
O131     O      0.429990000000     0.302550000000     0.531740000000    -0.360027   
O132     O      0.462390000000     0.346290000000     0.033480000000    -0.360762   
O133     O      0.448890000000     0.200230000000     0.541830000000    -0.359424   
O134     O      0.493790000000     0.174630000000     0.044290000000    -0.35647    
O135     O      0.517760000000     0.325050000000     0.621840000000    -0.366676   
O136     O      0.014250000000     0.361220000000     0.581690000000    -0.354088   
O137     O      0.480660000000     0.267590000000     0.637390000000    -0.339599   
O138     O      0.058670000000     0.285960000000     0.649860000000    -0.512151   
O139     O      0.428480000000     0.254000000000     0.585150000000    -0.511432   
O140     O      0.416000000000     0.246260000000     0.007810000000    -0.32793    
O141     O      0.495190000000     0.233800000000     0.577370000000    -0.463717   
O142     O      0.484160000000     0.293990000000     0.571810000000    -0.607752   
O143     O      0.100540000000     0.334810000000     0.036470000000    -0.367979   
O144     O      0.056000000000     0.365010000000     0.530990000000    -0.355187   
O145     O      0.029570000000     0.210580000000     0.955550000000    -0.36805    
O146     O      0.543710000000     0.180620000000     0.999620000000    -0.356664   
O147     O      0.011910000000     0.312920000000     0.947020000000    -0.359368   
O148     O      0.507450000000     0.350600000000     0.984320000000    -0.358268   
O149     O      0.118110000000     0.233980000000     0.033710000000    -0.369002   
O150     O      0.086600000000     0.195020000000     0.546240000000    -0.356159   
O151     O      0.119330000000     0.287100000000     0.990260000000    -0.512129   
O152     O      0.132070000000     0.290290000000     0.572190000000    -0.328372   
O153     O      0.064470000000     0.268730000000     0.936080000000    -0.343737   
O154     O      0.489400000000     0.253770000000     0.929970000000    -0.512907   
O155     O      0.052620000000     0.302270000000     0.998860000000    -0.609257   
O156     O      0.063590000000     0.242610000000     0.003560000000    -0.469377   
O157     O      0.053860000000     0.312670000000     0.572570000000    -0.477359   
O158     O      0.494870000000     0.228110000000     0.007160000000    -0.62533    
O159     O      0.065520000000     0.249250000000     0.577640000000    -0.623997   
O160     O      0.482980000000     0.291770000000     0.001530000000    -0.474507   
O161     O      0.348770000000     0.081690000000     0.554680000000    -0.373798   
O162     O      0.372250000000     0.042240000000     0.035760000000    -0.349914   
O163     O      0.232820000000     0.993990000000     0.622720000000    -0.356688   
O164     O      0.195880000000     0.520360000000     0.594160000000    -0.353684   
O165     O      0.333810000000     0.973890000000     0.604220000000    -0.357495   
O166     O      0.362960000000     0.478830000000     0.555790000000    -0.365973   
O167     O      0.251180000000     0.100970000000     0.579830000000    -0.372916   
O168     O      0.204370000000     0.077810000000     0.069460000000    -0.362209   
O169     O      0.309940000000     0.088180000000     0.607920000000    -0.338578   
O170     O      0.297830000000     0.127420000000     0.040660000000    -0.523014   
O171     O      0.293840000000     0.011870000000     0.642610000000    -0.519834   
O172     O      0.275830000000     0.441710000000     0.615550000000    -0.335778   
O173     O      0.317910000000     0.026360000000     0.572950000000    -0.462241   
O174     O      0.259520000000     0.039770000000     0.583830000000    -0.615479   
O175     O      0.215530000000     0.563390000000     0.962740000000    -0.360144   
O176     O      0.185980000000     0.053290000000     0.004590000000    -0.356463   
O177     O      0.299210000000     0.431610000000     0.989580000000    -0.364671   
O178     O      0.344260000000     0.456340000000     0.497340000000    -0.351931   
O179     O      0.199180000000     0.455920000000     0.007620000000    -0.367597   
O180     O      0.177010000000     0.498470000000     0.531590000000    -0.359899   
O181     O      0.314710000000     0.537520000000     0.941340000000    -0.355663   
O182     O      0.355400000000     0.017070000000     0.972630000000    -0.363973   
O183     O      0.252720000000     0.528390000000     0.922800000000    -0.506831   
O184     O      0.278540000000     0.095360000000     0.949590000000    -0.338513   
O185     O      0.243320000000     0.449470000000     0.954330000000    -0.341222   
O186     O      0.245540000000     0.410330000000     0.523950000000    -0.517894   
O187     O      0.232170000000     0.509220000000     0.992990000000    -0.610944   
O188     O      0.290320000000     0.496070000000     0.980730000000    -0.45589    
O189     O      0.249770000000     0.071590000000     0.020010000000    -0.480179   
O190     O      0.298840000000     0.465920000000     0.543980000000    -0.623443   
O191     O      0.313210000000     0.057110000000     0.007600000000    -0.625391   
O192     O      0.236050000000     0.480360000000     0.558000000000    -0.476497   
O193     O      0.450350000000     0.515050000000     0.223330000000    -0.371946   
O194     O      0.492770000000     0.032200000000     0.196310000000    -0.357507   
O195     O      0.500270000000     0.595820000000     0.354900000000    -0.366079   
O196     O      0.004870000000     0.555660000000     0.384350000000    -0.363399   
O197     O      0.511890000000     0.616730000000     0.252350000000    -0.365755   
O198     O      0.022600000000     0.588370000000     0.209560000000    -0.360546   
O199     O      0.437710000000     0.497880000000     0.326480000000    -0.362564   
O200     O      0.476340000000     0.996060000000     0.370410000000    -0.35083    
O201     O      0.420900000000     0.544350000000     0.279450000000    -0.346764   
O202     O      0.436960000000     0.964610000000     0.268870000000    -0.510987   
O203     O      0.464520000000     0.612290000000     0.300390000000    -0.50936    
O204     O      0.038080000000     0.636880000000     0.312730000000    -0.339615   
O205     O      0.488320000000     0.557130000000     0.259010000000    -0.469643   
O206     O      0.481990000000     0.544460000000     0.319240000000    -0.612874   
O207     O      0.041200000000     0.934220000000     0.326130000000    -0.361417   
O208     O      0.534240000000     0.961670000000     0.368410000000    -0.355985   
O209     O      0.117400000000     0.052940000000     0.249540000000    -0.365003   
O210     O      0.082430000000     0.552220000000     0.208530000000    -0.356752   
O211     O      0.106270000000     0.039300000000     0.354360000000    -0.366207   
O212     O      0.063640000000     0.523600000000     0.384530000000    -0.353694   
O213     O      0.052720000000     0.954790000000     0.222100000000    -0.358756   
O214     O      0.550300000000     0.998330000000     0.194070000000    -0.356199   
O215     O      0.094640000000     0.944030000000     0.279610000000    -0.511783   
O216     O      0.527210000000     0.913390000000     0.264550000000    -0.328464   
O217     O      0.134030000000     0.006260000000     0.298980000000    -0.34013    
O218     O      0.123830000000     0.584080000000     0.308910000000    -0.516074   
O219     O      0.067990000000     0.995290000000     0.319240000000    -0.601634   
O220     O      0.074070000000     0.007160000000     0.258030000000    -0.463569   
O221     O      0.502810000000     0.975530000000     0.311140000000    -0.472169   
O222     O      0.056790000000     0.574990000000     0.267960000000    -0.623542   
O223     O      0.509020000000     0.989230000000     0.245940000000    -0.621674   
O224     O      0.049870000000     0.562580000000     0.333630000000    -0.477621   
O225     O      0.538760000000     0.725920000000     0.129740000000    -0.37458    
O226     O      0.041950000000     0.687310000000     0.092500000000    -0.360288   
O227     O      0.431570000000     0.805210000000     0.034440000000    -0.36088    
O228     O      0.468650000000     0.842140000000     0.533730000000    -0.359101   
O229     O      0.449110000000     0.702750000000     0.043870000000    -0.35973    
O230     O      0.503230000000     0.670930000000     0.544650000000    -0.355072   
O231     O      0.521460000000     0.826250000000     0.122750000000    -0.366866   
O232     O      0.016200000000     0.858660000000     0.079590000000    -0.353736   
O233     O      0.484050000000     0.769330000000     0.139010000000    -0.339534   
O234     O      0.060990000000     0.782960000000     0.146790000000    -0.512648   
O235     O      0.430540000000     0.756640000000     0.087800000000    -0.511386   
O236     O      0.423960000000     0.741090000000     0.508360000000    -0.327222   
O237     O      0.496720000000     0.735510000000     0.078500000000    -0.463747   
O238     O      0.486460000000     0.795850000000     0.073360000000    -0.607762   
O239     O      0.101460000000     0.836960000000     0.539580000000    -0.368224   
O240     O      0.057490000000     0.862400000000     0.028220000000    -0.355355   
O241     O      0.031280000000     0.711060000000     0.459660000000    -0.368069   
O242     O      0.551450000000     0.677450000000     0.497900000000    -0.358858   
O243     O      0.013450000000     0.813270000000     0.449370000000    -0.359171   
O244     O      0.513550000000     0.847270000000     0.483930000000    -0.357835   
O245     O      0.119590000000     0.736320000000     0.537530000000    -0.369556   
O246     O      0.087060000000     0.692230000000     0.042660000000    -0.357437   
O247     O      0.120520000000     0.789130000000     0.493360000000    -0.512903   
O248     O      0.133460000000     0.787050000000     0.068600000000    -0.328894   
O249     O      0.065930000000     0.768880000000     0.439210000000    -0.343674   
O250     O      0.495610000000     0.750440000000     0.429700000000    -0.512663   
O251     O      0.053850000000     0.803550000000     0.501480000000    -0.610143   
O252     O      0.065120000000     0.744100000000     0.507250000000    -0.468863   
O253     O      0.055540000000     0.809910000000     0.069750000000    -0.477439   
O254     O      0.502920000000     0.724420000000     0.506660000000    -0.623517   
O255     O      0.066800000000     0.746370000000     0.074410000000    -0.623982   
O256     O      0.489820000000     0.787990000000     0.501360000000    -0.473642   
O257     O      0.346080000000     0.584210000000     0.054710000000    -0.373731   
O258     O      0.372310000000     0.541590000000     0.532000000000    -0.348601   
O259     O      0.231790000000     0.493340000000     0.121590000000    -0.36175    
O260     O      0.195130000000     0.018950000000     0.093890000000    -0.354196   
O261     O      0.332880000000     0.475240000000     0.101340000000    -0.358577   
O262     O      0.363130000000     0.979450000000     0.058430000000    -0.363523   
O263     O      0.248730000000     0.601470000000     0.082360000000    -0.373225   
O264     O      0.205620000000     0.578900000000     0.569540000000    -0.362328   
O265     O      0.308090000000     0.588760000000     0.108670000000    -0.337707   
O266     O      0.298590000000     0.627360000000     0.538540000000    -0.522925   
O267     O      0.292670000000     0.510930000000     0.141410000000    -0.51097    
O268     O      0.275660000000     0.941190000000     0.116510000000    -0.336172   
O269     O      0.315890000000     0.528010000000     0.071840000000    -0.460153   
O270     O      0.257580000000     0.540400000000     0.083770000000    -0.613308   
O271     O      0.219360000000     0.060020000000     0.461750000000    -0.359959   
O272     O      0.185410000000     0.554030000000     0.504670000000    -0.35433    
O273     O      0.301400000000     0.927540000000     0.494300000000    -0.364165   
O274     O      0.345860000000     0.957380000000     0.999430000000    -0.349083   
O275     O      0.201050000000     0.953870000000     0.509080000000    -0.365745   
O276     O      0.177610000000     0.997240000000     0.030900000000    -0.356744   
O277     O      0.318280000000     0.032370000000     0.442240000000    -0.357122   
O278     O      0.353870000000     0.515920000000     0.469660000000    -0.363354   
O279     O      0.256230000000     0.022430000000     0.423510000000    -0.507144   
O280     O      0.277330000000     0.595100000000     0.447960000000    -0.338564   
O281     O      0.246340000000     0.944830000000     0.457080000000    -0.339939   
O282     O      0.247240000000     0.909930000000     0.024160000000    -0.517936   
O283     O      0.234870000000     0.006110000000     0.493750000000    -0.613814   
O284     O      0.293030000000     0.991950000000     0.482600000000    -0.451763   
O285     O      0.249840000000     0.571970000000     0.518960000000    -0.480077   
O286     O      0.299520000000     0.966010000000     0.045490000000    -0.621962   
O287     O      0.312860000000     0.556610000000     0.505350000000    -0.624659   
O288     O      0.236380000000     0.979650000000     0.058360000000    -0.474944   
O289     O      0.449490000000     0.513420000000     0.724340000000    -0.371076   
O290     O      0.491650000000     0.033010000000     0.696560000000    -0.357319   
O291     O      0.498140000000     0.596820000000     0.853930000000    -0.365462   
O292     O      0.004980000000     0.553590000000     0.885110000000    -0.363194   
O293     O      0.511250000000     0.616930000000     0.751250000000    -0.366284   
O294     O      0.024690000000     0.590030000000     0.711270000000    -0.360002   
O295     O      0.438010000000     0.498220000000     0.828110000000    -0.362469   
O296     O      0.474650000000     0.998740000000     0.870990000000    -0.350508   
O297     O      0.420010000000     0.543100000000     0.780160000000    -0.346301   
O298     O      0.434910000000     0.966760000000     0.769810000000    -0.510824   
O299     O      0.462710000000     0.611970000000     0.798560000000    -0.509992   
O300     O      0.040200000000     0.636000000000     0.815940000000    -0.342428   
O301     O      0.487070000000     0.556740000000     0.759060000000    -0.469642   
O302     O      0.481610000000     0.544860000000     0.819520000000    -0.612418   
O303     O      0.041890000000     0.934730000000     0.825140000000    -0.361347   
O304     O      0.532110000000     0.963050000000     0.869220000000    -0.35629    
O305     O      0.117520000000     0.054300000000     0.750130000000    -0.364455   
O306     O      0.084200000000     0.553510000000     0.709620000000    -0.355998   
O307     O      0.105930000000     0.040460000000     0.854960000000    -0.365736   
O308     O      0.064470000000     0.522160000000     0.885100000000    -0.355212   
O309     O      0.053800000000     0.956680000000     0.721430000000    -0.360328   
O310     O      0.548380000000     0.997910000000     0.694510000000    -0.356246   
O311     O      0.095570000000     0.945600000000     0.779040000000    -0.512069   
O312     O      0.524130000000     0.914120000000     0.765700000000    -0.328407   
O313     O      0.134420000000     0.008140000000     0.799760000000    -0.340082   
O314     O      0.125640000000     0.583110000000     0.810970000000    -0.514002   
O315     O      0.068300000000     0.996150000000     0.819110000000    -0.601481   
O316     O      0.074450000000     0.008790000000     0.758110000000    -0.463341   
O317     O      0.500870000000     0.976990000000     0.811890000000    -0.472284   
O318     O      0.058440000000     0.575320000000     0.769500000000    -0.623201   
O319     O      0.507240000000     0.990040000000     0.746550000000    -0.621747   
O320     O      0.051240000000     0.561680000000     0.834900000000    -0.478343   
O321     O      0.545230000000     0.722990000000     0.629430000000    -0.374182   
O322     O      0.044080000000     0.690340000000     0.597430000000    -0.360016   
O323     O      0.437620000000     0.799710000000     0.532970000000    -0.359673   
O324     O      0.463880000000     0.846700000000     0.034800000000    -0.360808   
O325     O      0.457850000000     0.697720000000     0.543450000000    -0.358921   
O326     O      0.493730000000     0.674690000000     0.044170000000    -0.356194   
O327     O      0.525860000000     0.822950000000     0.622310000000    -0.36716    
O328     O      0.015910000000     0.861020000000     0.581540000000    -0.354057   
O329     O      0.490250000000     0.765260000000     0.638330000000    -0.339076   
O330     O      0.061390000000     0.786990000000     0.650240000000    -0.512911   
O331     O      0.437300000000     0.751290000000     0.586250000000    -0.511905   
O332     O      0.415770000000     0.747300000000     0.010230000000    -0.327855   
O333     O      0.504410000000     0.731700000000     0.577590000000    -0.462904   
O334     O      0.492390000000     0.791670000000     0.572550000000    -0.607744   
O335     O      0.101350000000     0.834320000000     0.036020000000    -0.368044   
O336     O      0.057410000000     0.864330000000     0.530410000000    -0.355438   
O337     O      0.029710000000     0.710510000000     0.955120000000    -0.367994   
O338     O      0.542450000000     0.680330000000     0.998320000000    -0.356362   
O339     O      0.012790000000     0.813010000000     0.946580000000    -0.359453   
O340     O      0.507990000000     0.850830000000     0.984580000000    -0.358001   
O341     O      0.118320000000     0.733380000000     0.033180000000    -0.368968   
O342     O      0.088790000000     0.694910000000     0.547300000000    -0.357789   
O343     O      0.119860000000     0.786540000000     0.989790000000    -0.512241   
O344     O      0.134160000000     0.790390000000     0.572050000000    -0.328452   
O345     O      0.064820000000     0.768370000000     0.935540000000    -0.343606   
O346     O      0.486970000000     0.754420000000     0.930620000000    -0.513367   
O347     O      0.053240000000     0.802050000000     0.998410000000    -0.609212   
O348     O      0.063850000000     0.742330000000     0.003110000000    -0.469253   
O349     O      0.055810000000     0.812610000000     0.572740000000    -0.477501   
O350     O      0.494410000000     0.728340000000     0.007310000000    -0.625472   
O351     O      0.067840000000     0.749330000000     0.578540000000    -0.624654   
O352     O      0.483090000000     0.792150000000     0.002260000000    -0.474426   
O353     O      0.348140000000     0.583900000000     0.551930000000    -0.372634   
O354     O      0.371000000000     0.542400000000     0.034590000000    -0.349208   
O355     O      0.233330000000     0.494740000000     0.621510000000    -0.361495   
O356     O      0.195940000000     0.019010000000     0.594010000000    -0.353723   
O357     O      0.333800000000     0.474840000000     0.600420000000    -0.359357   
O358     O      0.363740000000     0.976670000000     0.560000000000    -0.362623   
O359     O      0.251480000000     0.602050000000     0.581410000000    -0.373448   
O360     O      0.203410000000     0.577620000000     0.069870000000    -0.36262    
O361     O      0.311220000000     0.588900000000     0.606720000000    -0.337573   
O362     O      0.296420000000     0.627470000000     0.040520000000    -0.523359   
O363     O      0.294760000000     0.512010000000     0.640410000000    -0.511078   
O364     O      0.275550000000     0.941050000000     0.618940000000    -0.336137   
O365     O      0.317450000000     0.527900000000     0.570560000000    -0.460335   
O366     O      0.259380000000     0.541150000000     0.582950000000    -0.613511   
O367     O      0.217500000000     0.063190000000     0.962610000000    -0.360069   
O368     O      0.184410000000     0.553340000000     0.004980000000    -0.356228   
O369     O      0.300790000000     0.931290000000     0.990880000000    -0.364506   
O370     O      0.346790000000     0.953340000000     0.502010000000    -0.347778   
O371     O      0.200620000000     0.955730000000     0.007950000000    -0.366618   
O372     O      0.178480000000     0.996140000000     0.531020000000    -0.357345   
O373     O      0.316800000000     0.036990000000     0.942170000000    -0.35599    
O374     O      0.353610000000     0.517510000000     0.971330000000    -0.363351   
O375     O      0.254870000000     0.027690000000     0.923180000000    -0.506835   
O376     O      0.276460000000     0.595900000000     0.949500000000    -0.338566   
O377     O      0.245190000000     0.949080000000     0.954990000000    -0.339643   
O378     O      0.246890000000     0.907790000000     0.527400000000    -0.518426   
O379     O      0.233760000000     0.008990000000     0.993240000000    -0.612736   
O380     O      0.292000000000     0.995730000000     0.981550000000    -0.4513     
O381     O      0.248330000000     0.571710000000     0.019950000000    -0.480933   
O382     O      0.300010000000     0.963820000000     0.547330000000    -0.622141   
O383     O      0.311690000000     0.557330000000     0.006910000000    -0.626094   
O384     O      0.236930000000     0.978360000000     0.559600000000    -0.475053   
O385     O      0.951860000000     0.014970000000     0.225570000000    -0.372004   
O386     O      0.990470000000     0.535450000000     0.195810000000    -0.352579   
O387     O      0.001520000000     0.097870000000     0.355090000000    -0.374145   
O388     O      0.506980000000     0.050660000000     0.384830000000    -0.355292   
O389     O      0.012740000000     0.117650000000     0.252410000000    -0.367042   
O390     O      0.523520000000     0.085720000000     0.210400000000    -0.359007   
O391     O      0.940660000000     0.999560000000     0.329270000000    -0.359918   
O392     O      0.971970000000     0.502080000000     0.370130000000    -0.350187   
O393     O      0.922790000000     0.044680000000     0.281510000000    -0.347701   
O394     O      0.932360000000     0.470340000000     0.268950000000    -0.513095   
O395     O      0.966340000000     0.113890000000     0.300830000000    -0.505742   
O396     O      0.538430000000     0.133450000000     0.314180000000    -0.340844   
O397     O      0.989910000000     0.057940000000     0.260210000000    -0.464475   
O398     O      0.984490000000     0.046040000000     0.320650000000    -0.608133   
O399     O      0.537800000000     0.432040000000     0.323740000000    -0.361749   
O400     O      0.029560000000     0.465790000000     0.369000000000    -0.360141   
O401     O      0.615870000000     0.551040000000     0.249880000000    -0.364891   
O402     O      0.584320000000     0.051240000000     0.208830000000    -0.357188   
O403     O      0.603170000000     0.536120000000     0.354460000000    -0.365735   
O404     O      0.566920000000     0.020310000000     0.384500000000    -0.356121   
O405     O      0.550960000000     0.453990000000     0.220250000000    -0.359479   
O406     O      0.046880000000     0.500020000000     0.194210000000    -0.360517   
O407     O      0.591670000000     0.441840000000     0.278080000000    -0.511982   
O408     O      0.021160000000     0.416590000000     0.265700000000    -0.334088   
O409     O      0.631450000000     0.503510000000     0.298910000000    -0.338372   
O410     O      0.625220000000     0.083210000000     0.309440000000    -0.515719   
O411     O      0.565050000000     0.492890000000     0.318080000000    -0.606297   
O412     O      0.572010000000     0.505560000000     0.257150000000    -0.461104   
O413     O      0.998470000000     0.479800000000     0.311370000000    -0.470253   
O414     O      0.558330000000     0.072730000000     0.268580000000    -0.623709   
O415     O      0.005340000000     0.492630000000     0.246040000000    -0.633781   
O416     O      0.552000000000     0.059460000000     0.334160000000    -0.478076   
O417     O      0.038510000000     0.226130000000     0.128940000000    -0.375146   
O418     O      0.540110000000     0.187640000000     0.094990000000    -0.359738   
O419     O      0.931450000000     0.304880000000     0.033100000000    -0.360506   
O420     O      0.962860000000     0.349180000000     0.535260000000    -0.356875   
O421     O      0.949770000000     0.202550000000     0.042590000000    -0.359536   
O422     O      0.994000000000     0.177240000000     0.545430000000    -0.352172   
O423     O      0.020330000000     0.326380000000     0.122070000000    -0.367831   
O424     O      0.513250000000     0.358630000000     0.080480000000    -0.353949   
O425     O      0.983470000000     0.269090000000     0.137950000000    -0.336439   
O426     O      0.557520000000     0.283650000000     0.149070000000    -0.513463   
O427     O      0.930370000000     0.256200000000     0.086220000000    -0.51162    
O428     O      0.916060000000     0.249160000000     0.509650000000    -0.326949   
O429     O      0.996860000000     0.235570000000     0.077400000000    -0.458821   
O430     O      0.986120000000     0.295830000000     0.072340000000    -0.603738   
O431     O      0.598830000000     0.333420000000     0.538100000000    -0.368097   
O432     O      0.555570000000     0.362440000000     0.029750000000    -0.355887   
O433     O      0.529560000000     0.208350000000     0.456100000000    -0.366644   
O434     O      0.043640000000     0.183170000000     0.500370000000    -0.359699   
O435     O      0.511260000000     0.310570000000     0.446830000000    -0.358147   
O436     O      0.007570000000     0.353170000000     0.485430000000    -0.359715   
O437     O      0.616980000000     0.232750000000     0.535160000000    -0.369371   
O438     O      0.586240000000     0.192640000000     0.045720000000    -0.35725    
O439     O      0.618370000000     0.286030000000     0.491620000000    -0.512666   
O440     O      0.631220000000     0.287850000000     0.072450000000    -0.3295     
O441     O      0.564620000000     0.266720000000     0.436940000000    -0.343998   
O442     O      0.988580000000     0.256080000000     0.431490000000    -0.509976   
O443     O      0.551630000000     0.300480000000     0.499210000000    -0.610975   
O444     O      0.562880000000     0.240870000000     0.504410000000    -0.469474   
O445     O      0.553180000000     0.310220000000     0.071830000000    -0.478581   
O446     O      0.994870000000     0.230760000000     0.508390000000    -0.619532   
O447     O      0.564890000000     0.246770000000     0.077070000000    -0.625252   
O448     O      0.983030000000     0.294480000000     0.502890000000    -0.468799   
O449     O      0.847230000000     0.084230000000     0.055190000000    -0.373231   
O450     O      0.872490000000     0.043740000000     0.535760000000    -0.348924   
O451     O      0.732560000000     0.993410000000     0.121950000000    -0.357194   
O452     O      0.694420000000     0.518670000000     0.093590000000    -0.353865   
O453     O      0.833750000000     0.975530000000     0.102580000000    -0.357304   
O454     O      0.862500000000     0.479850000000     0.057480000000    -0.36639    
O455     O      0.749640000000     0.101460000000     0.082350000000    -0.373034   
O456     O      0.704340000000     0.077370000000     0.570080000000    -0.362262   
O457     O      0.808970000000     0.089050000000     0.108990000000    -0.338211   
O458     O      0.797010000000     0.128070000000     0.541520000000    -0.522971   
O459     O      0.793200000000     0.011420000000     0.142070000000    -0.519623   
O460     O      0.775520000000     0.441280000000     0.116040000000    -0.336389   
O461     O      0.816930000000     0.028080000000     0.072560000000    -0.462172   
O462     O      0.758550000000     0.040490000000     0.084080000000    -0.614813   
O463     O      0.710800000000     0.561840000000     0.458960000000    -0.359585   
O464     O      0.686080000000     0.053090000000     0.504880000000    -0.355063   
O465     O      0.798280000000     0.433320000000     0.492820000000    -0.365224   
O466     O      0.844850000000     0.457070000000     0.998640000000    -0.351499   
O467     O      0.697380000000     0.455400000000     0.509020000000    -0.366737   
O468     O      0.676610000000     0.496580000000     0.030900000000    -0.360423   
O469     O      0.810870000000     0.537460000000     0.438770000000    -0.355729   
O470     O      0.855760000000     0.018570000000     0.472520000000    -0.364369   
O471     O      0.748360000000     0.523030000000     0.421380000000    -0.508528   
O472     O      0.778200000000     0.096360000000     0.450160000000    -0.338477   
O473     O      0.741940000000     0.446650000000     0.457020000000    -0.341115   
O474     O      0.746600000000     0.409430000000     0.024220000000    -0.517865   
O475     O      0.728670000000     0.508620000000     0.491950000000    -0.611384   
O476     O      0.787330000000     0.496600000000     0.480400000000    -0.457033   
O477     O      0.749680000000     0.071890000000     0.520440000000    -0.479667   
O478     O      0.798760000000     0.465840000000     0.044870000000    -0.623089   
O479     O      0.813250000000     0.058070000000     0.507860000000    -0.624079   
O480     O      0.735600000000     0.479350000000     0.058050000000    -0.476522   
O481     O      0.952310000000     0.015950000000     0.725290000000    -0.372378   
O482     O      0.992230000000     0.537570000000     0.696320000000    -0.353041   
O483     O      0.000080000000     0.097350000000     0.855910000000    -0.375136   
O484     O      0.506470000000     0.052640000000     0.884950000000    -0.35522    
O485     O      0.011800000000     0.118670000000     0.753600000000    -0.366305   
O486     O      0.523180000000     0.085920000000     0.710140000000    -0.358969   
O487     O      0.940830000000     0.999240000000     0.828720000000    -0.358315   
O488     O      0.973280000000     0.500190000000     0.869870000000    -0.349793   
O489     O      0.922680000000     0.044480000000     0.781390000000    -0.347422   
O490     O      0.933970000000     0.470830000000     0.767580000000    -0.513697   
O491     O      0.965930000000     0.114550000000     0.801880000000    -0.504866   
O492     O      0.539330000000     0.134260000000     0.813470000000    -0.340591   
O493     O      0.989850000000     0.058750000000     0.760590000000    -0.464689   
O494     O      0.984320000000     0.046070000000     0.820760000000    -0.608325   
O495     O      0.539170000000     0.433460000000     0.825290000000    -0.362183   
O496     O      0.030540000000     0.464360000000     0.868260000000    -0.360489   
O497     O      0.614550000000     0.553020000000     0.748930000000    -0.365356   
O498     O      0.583540000000     0.050520000000     0.708810000000    -0.357489   
O499     O      0.603200000000     0.539300000000     0.853740000000    -0.365636   
O500     O      0.565860000000     0.021210000000     0.884780000000    -0.356054   
O501     O      0.550440000000     0.453810000000     0.721310000000    -0.359313   
O502     O      0.048670000000     0.501740000000     0.694280000000    -0.360285   
O503     O      0.592530000000     0.443540000000     0.778780000000    -0.51172    
O504     O      0.022460000000     0.417010000000     0.763910000000    -0.328527   
O505     O      0.631250000000     0.505690000000     0.798310000000    -0.338507   
O506     O      0.625100000000     0.082570000000     0.809100000000    -0.515803   
O507     O      0.565420000000     0.494600000000     0.818490000000    -0.606162   
O508     O      0.571640000000     0.506420000000     0.757260000000    -0.461327   
O509     O      0.999660000000     0.479460000000     0.810760000000    -0.469843   
O510     O      0.558000000000     0.072870000000     0.768400000000    -0.623437   
O511     O      0.006820000000     0.493520000000     0.745700000000    -0.633015   
O512     O      0.551540000000     0.060250000000     0.834130000000    -0.477886   
O513     O      0.037000000000     0.228900000000     0.631520000000    -0.375212   
O514     O      0.540390000000     0.186080000000     0.593820000000    -0.35939    
O515     O      0.930890000000     0.307440000000     0.534410000000    -0.359158   
O516     O      0.963410000000     0.346630000000     0.033770000000    -0.357548   
O517     O      0.949160000000     0.204930000000     0.544320000000    -0.359157   
O518     O      0.994600000000     0.174830000000     0.043130000000    -0.352754   
O519     O      0.019120000000     0.329210000000     0.623980000000    -0.367298   
O520     O      0.513020000000     0.357060000000     0.579540000000    -0.352908   
O521     O      0.981760000000     0.272000000000     0.639680000000    -0.33684    
O522     O      0.557420000000     0.282130000000     0.647930000000    -0.512764   
O523     O      0.929230000000     0.258700000000     0.587520000000    -0.511631   
O524     O      0.916380000000     0.246820000000     0.008480000000    -0.327934   
O525     O      0.995870000000     0.238130000000     0.579490000000    -0.458873   
O526     O      0.985150000000     0.298370000000     0.574060000000    -0.603576   
O527     O      0.599460000000     0.334780000000     0.038870000000    -0.368999   
O528     O      0.554860000000     0.360930000000     0.528970000000    -0.355726   
O529     O      0.530000000000     0.209920000000     0.957230000000    -0.357031   
O530     O      0.044000000000     0.181020000000     0.997500000000    -0.358908   
O531     O      0.512160000000     0.312280000000     0.947940000000    -0.36943    
O532     O      0.007980000000     0.351070000000     0.983700000000    -0.357784   
O533     O      0.617200000000     0.234070000000     0.036500000000    -0.366736   
O534     O      0.586160000000     0.191260000000     0.544490000000    -0.357946   
O535     O      0.619330000000     0.287100000000     0.993420000000    -0.514801   
O536     O      0.631160000000     0.286490000000     0.570500000000    -0.328715   
O537     O      0.566000000000     0.266740000000     0.938640000000    -0.337259   
O538     O      0.987990000000     0.254310000000     0.929630000000    -0.509984   
O539     O      0.552320000000     0.301980000000     0.000440000000    -0.613156   
O540     O      0.563310000000     0.242380000000     0.005740000000    -0.461748   
O541     O      0.552820000000     0.308660000000     0.570570000000    -0.478257   
O542     O      0.995140000000     0.228500000000     0.006240000000    -0.621117   
O543     O      0.564790000000     0.245310000000     0.575740000000    -0.625228   
O544     O      0.983290000000     0.292270000000     0.001200000000    -0.469648   
O545     O      0.847050000000     0.085320000000     0.555710000000    -0.373286   
O546     O      0.872220000000     0.042350000000     0.035330000000    -0.349666   
O547     O      0.733060000000     0.993200000000     0.621810000000    -0.357081   
O548     O      0.690600000000     0.520850000000     0.592310000000    -0.353343   
O549     O      0.834450000000     0.976140000000     0.602460000000    -0.357308   
O550     O      0.859500000000     0.486590000000     0.557270000000    -0.365815   
O551     O      0.749400000000     0.101470000000     0.583020000000    -0.373334   
O552     O      0.704360000000     0.077530000000     0.069840000000    -0.36205    
O553     O      0.808810000000     0.089250000000     0.609600000000    -0.33811    
O554     O      0.797530000000     0.127380000000     0.040600000000    -0.523509   
O555     O      0.793540000000     0.011380000000     0.642160000000    -0.519802   
O556     O      0.774990000000     0.449510000000     0.619660000000    -0.330955   
O557     O      0.817250000000     0.028710000000     0.572780000000    -0.462323   
O558     O      0.758730000000     0.040590000000     0.584270000000    -0.615126   
O559     O      0.715830000000     0.562090000000     0.961840000000    -0.360165   
O560     O      0.685850000000     0.053050000000     0.004750000000    -0.356458   
O561     O      0.799800000000     0.430850000000     0.990430000000    -0.364609   
O562     O      0.842650000000     0.460950000000     0.499990000000    -0.350447   
O563     O      0.699590000000     0.454920000000     0.008210000000    -0.367029   
O564     O      0.673180000000     0.497170000000     0.530090000000    -0.361735   
O565     O      0.815230000000     0.536670000000     0.941090000000    -0.356088   
O566     O      0.855200000000     0.017040000000     0.972320000000    -0.363601   
O567     O      0.753290000000     0.526420000000     0.922500000000    -0.507062   
O568     O      0.778160000000     0.095270000000     0.949540000000    -0.338099   
O569     O      0.743820000000     0.448200000000     0.954860000000    -0.341278   
O570     O      0.745710000000     0.411920000000     0.528500000000    -0.518128   
O571     O      0.732500000000     0.508270000000     0.992780000000    -0.610981   
O572     O      0.790730000000     0.495160000000     0.980820000000    -0.455817   
O573     O      0.749630000000     0.071460000000     0.020060000000    -0.480084   
O574     O      0.796250000000     0.470570000000     0.545800000000    -0.623846   
O575     O      0.813070000000     0.057060000000     0.007460000000    -0.625453   
O576     O      0.732950000000     0.482680000000     0.558560000000    -0.476191   
O577     O      0.950670000000     0.515970000000     0.224970000000    -0.370789   
O578     O      0.991440000000     0.034620000000     0.196220000000    -0.353506   
O579     O      0.000270000000     0.599120000000     0.354800000000    -0.3739     
O580     O      0.504060000000     0.551740000000     0.383580000000    -0.355409   
O581     O      0.011710000000     0.618590000000     0.252010000000    -0.367263   
O582     O      0.522690000000     0.587020000000     0.209500000000    -0.359433   
O583     O      0.938610000000     0.500690000000     0.328460000000    -0.362145   
O584     O      0.974370000000     0.000580000000     0.370660000000    -0.355809   
O585     O      0.921420000000     0.546090000000     0.280700000000    -0.34685    
O586     O      0.934030000000     0.969080000000     0.269630000000    -0.511101   
O587     O      0.964800000000     0.614830000000     0.300230000000    -0.506023   
O588     O      0.537890000000     0.633960000000     0.313420000000    -0.339524   
O589     O      0.988600000000     0.558960000000     0.259760000000    -0.46496    
O590     O      0.982760000000     0.547200000000     0.320230000000    -0.608637   
O591     O      0.544570000000     0.931910000000     0.325340000000    -0.361403   
O592     O      0.031540000000     0.964600000000     0.368910000000    -0.356209   
O593     O      0.618200000000     0.052870000000     0.250070000000    -0.364773   
O594     O      0.582330000000     0.550890000000     0.208330000000    -0.356911   
O595     O      0.606940000000     0.038800000000     0.354910000000    -0.365865   
O596     O      0.562070000000     0.519100000000     0.383450000000    -0.356067   
O597     O      0.555780000000     0.953610000000     0.221600000000    -0.358655   
O598     O      0.048050000000     0.999360000000     0.194160000000    -0.357182   
O599     O      0.598060000000     0.943530000000     0.279120000000    -0.511863   
O600     O      0.022940000000     0.915640000000     0.265470000000    -0.329062   
O601     O      0.635830000000     0.006470000000     0.299530000000    -0.34025    
O602     O      0.623380000000     0.580450000000     0.309710000000    -0.516314   
O603     O      0.570040000000     0.993690000000     0.319160000000    -0.601754   
O604     O      0.575960000000     0.006240000000     0.258090000000    -0.463944   
O605     O      0.000330000000     0.978710000000     0.311550000000    -0.475168   
O606     O      0.556570000000     0.572540000000     0.267930000000    -0.624291   
O607     O      0.006750000000     0.991680000000     0.246210000000    -0.629514   
O608     O      0.549150000000     0.559090000000     0.333270000000    -0.478493   
O609     O      0.038810000000     0.726070000000     0.128470000000    -0.375321   
O610     O      0.541450000000     0.687080000000     0.093820000000    -0.359563   
O611     O      0.932070000000     0.805320000000     0.032770000000    -0.360641   
O612     O      0.964380000000     0.848030000000     0.535510000000    -0.357736   
O613     O      0.949820000000     0.702900000000     0.042180000000    -0.359391   
O614     O      0.996500000000     0.676920000000     0.549850000000    -0.35366    
O615     O      0.021050000000     0.826340000000     0.121630000000    -0.367859   
O616     O      0.516260000000     0.858440000000     0.080650000000    -0.353186   
O617     O      0.983910000000     0.769220000000     0.137490000000    -0.336286   
O618     O      0.561240000000     0.782710000000     0.147750000000    -0.513181   
O619     O      0.930720000000     0.756630000000     0.085780000000    -0.511638   
O620     O      0.918120000000     0.747330000000     0.511270000000    -0.327152   
O621     O      0.997100000000     0.735680000000     0.076970000000    -0.458827   
O622     O      0.986710000000     0.795990000000     0.071890000000    -0.60366    
O623     O      0.606120000000     0.832830000000     0.537200000000    -0.367255   
O624     O      0.557110000000     0.862000000000     0.028970000000    -0.355626   
O625     O      0.536600000000     0.706890000000     0.456000000000    -0.366792   
O626     O      0.044900000000     0.682020000000     0.502270000000    -0.360048   
O627     O      0.518610000000     0.809210000000     0.447290000000    -0.357965   
O628     O      0.009070000000     0.851920000000     0.485440000000    -0.35869    
O629     O      0.626260000000     0.732660000000     0.535050000000    -0.368588   
O630     O      0.586260000000     0.691740000000     0.043120000000    -0.357818   
O631     O      0.625760000000     0.785280000000     0.490720000000    -0.513003   
O632     O      0.633000000000     0.786240000000     0.069250000000    -0.330224   
O633     O      0.571940000000     0.765290000000     0.436840000000    -0.344097   
O634     O      0.989510000000     0.754200000000     0.432970000000    -0.509818   
O635     O      0.558960000000     0.799280000000     0.499310000000    -0.610201   
O636     O      0.571160000000     0.739850000000     0.504050000000    -0.469379   
O637     O      0.555310000000     0.809580000000     0.070670000000    -0.478534   
O638     O      0.996720000000     0.729560000000     0.510030000000    -0.619514   
O639     O      0.566440000000     0.745970000000     0.075360000000    -0.625346   
O640     O      0.984540000000     0.793250000000     0.503770000000    -0.469005   
O641     O      0.846080000000     0.584390000000     0.053650000000    -0.373256   
O642     O      0.866060000000     0.548460000000     0.531960000000    -0.349615   
O643     O      0.731830000000     0.493480000000     0.121420000000    -0.362147   
O644     O      0.695290000000     0.018820000000     0.094140000000    -0.353722   
O645     O      0.833050000000     0.475890000000     0.101910000000    -0.358387   
O646     O      0.863320000000     0.979650000000     0.058250000000    -0.363441   
O647     O      0.748650000000     0.601480000000     0.081230000000    -0.373324   
O648     O      0.696830000000     0.579400000000     0.565530000000    -0.363183   
O649     O      0.808090000000     0.589210000000     0.107690000000    -0.33768    
O650     O      0.790310000000     0.631580000000     0.532960000000    -0.519271   
O651     O      0.792450000000     0.511920000000     0.141300000000    -0.511488   
O652     O      0.776040000000     0.940990000000     0.116300000000    -0.336752   
O653     O      0.816000000000     0.528180000000     0.071610000000    -0.460352   
O654     O      0.757610000000     0.540520000000     0.083240000000    -0.613253   
O655     O      0.717500000000     0.063600000000     0.462980000000    -0.360116   
O656     O      0.679990000000     0.552860000000     0.501730000000    -0.355142   
O657     O      0.801910000000     0.932310000000     0.490170000000    -0.365372   
O658     O      0.845810000000     0.957420000000     0.999090000000    -0.349329   
O659     O      0.701640000000     0.955520000000     0.507850000000    -0.36625    
O660     O      0.677600000000     0.996950000000     0.031250000000    -0.356653   
O661     O      0.816910000000     0.038360000000     0.442290000000    -0.356227   
O662     O      0.850040000000     0.519990000000     0.470080000000    -0.364638   
O663     O      0.755080000000     0.028620000000     0.423340000000    -0.506777   
O664     O      0.770180000000     0.593510000000     0.442430000000    -0.336992   
O665     O      0.746040000000     0.949860000000     0.454630000000    -0.340192   
O666     O      0.747430000000     0.909780000000     0.024210000000    -0.518085   
O667     O      0.734230000000     0.009320000000     0.493270000000    -0.613719   
O668     O      0.792610000000     0.996670000000     0.481450000000    -0.451917   
O669     O      0.742660000000     0.572750000000     0.515070000000    -0.478507   
O670     O      0.799640000000     0.965930000000     0.045370000000    -0.622139   
O671     O      0.806490000000     0.559980000000     0.502980000000    -0.624425   
O672     O      0.736460000000     0.979490000000     0.058430000000    -0.475018   
O673     O      0.952100000000     0.518220000000     0.725070000000    -0.371139   
O674     O      0.991820000000     0.036130000000     0.696250000000    -0.353248   
O675     O      0.000140000000     0.597480000000     0.856290000000    -0.375268   
O676     O      0.503480000000     0.553450000000     0.883500000000    -0.354949   
O677     O      0.013290000000     0.619270000000     0.754290000000    -0.366725   
O678     O      0.521500000000     0.586480000000     0.708800000000    -0.359231   
O679     O      0.939980000000     0.500040000000     0.828130000000    -0.361962   
O680     O      0.974430000000     0.999940000000     0.870200000000    -0.346253   
O681     O      0.922630000000     0.546090000000     0.781490000000    -0.346407   
O682     O      0.934880000000     0.969160000000     0.768640000000    -0.511318   
O683     O      0.966910000000     0.615600000000     0.802030000000    -0.504921   
O684     O      0.535540000000     0.635150000000     0.812550000000    -0.337118   
O685     O      0.990230000000     0.559610000000     0.760740000000    -0.465191   
O686     O      0.984100000000     0.546690000000     0.820810000000    -0.609086   
O687     O      0.541810000000     0.932820000000     0.826350000000    -0.362075   
O688     O      0.032030000000     0.964580000000     0.868270000000    -0.357154   
O689     O      0.617500000000     0.051850000000     0.749990000000    -0.364797   
O690     O      0.580560000000     0.551330000000     0.707790000000    -0.358236   
O691     O      0.606140000000     0.038790000000     0.854970000000    -0.36576    
O692     O      0.562890000000     0.521840000000     0.883590000000    -0.354544   
O693     O      0.553650000000     0.953470000000     0.722540000000    -0.358657   
O694     O      0.048890000000     0.001550000000     0.694050000000    -0.365894   
O695     O      0.595500000000     0.943100000000     0.780200000000    -0.511808   
O696     O      0.024250000000     0.916690000000     0.764130000000    -0.329014   
O697     O      0.634390000000     0.005590000000     0.799830000000    -0.340438   
O698     O      0.622510000000     0.582700000000     0.808140000000    -0.515346   
O699     O      0.568410000000     0.994090000000     0.819670000000    -0.601792   
O700     O      0.574470000000     0.006030000000     0.758460000000    -0.464187   
O701     O      0.000800000000     0.978990000000     0.810960000000    -0.475292   
O702     O      0.555200000000     0.573260000000     0.767170000000    -0.624965   
O703     O      0.007360000000     0.992820000000     0.745790000000    -0.62911    
O704     O      0.548590000000     0.560860000000     0.832750000000    -0.477727   
O705     O      0.039780000000     0.729460000000     0.632860000000    -0.374613   
O706     O      0.549910000000     0.684310000000     0.593530000000    -0.361067   
O707     O      0.932560000000     0.806170000000     0.535380000000    -0.360358   
O708     O      0.964280000000     0.846890000000     0.033380000000    -0.357466   
O709     O      0.951380000000     0.704070000000     0.547600000000    -0.359105   
O710     O      0.994490000000     0.674920000000     0.042680000000    -0.352516   
O711     O      0.020960000000     0.829520000000     0.624200000000    -0.368012   
O712     O      0.520060000000     0.855070000000     0.580240000000    -0.353136   
O713     O      0.984480000000     0.772250000000     0.640990000000    -0.336425   
O714     O      0.567160000000     0.780410000000     0.647430000000    -0.514062   
O715     O      0.931210000000     0.758570000000     0.589000000000    -0.511733   
O716     O      0.916700000000     0.747380000000     0.008000000000    -0.328062   
O717     O      0.998220000000     0.737970000000     0.580990000000    -0.458853   
O718     O      0.987170000000     0.797940000000     0.574870000000    -0.603383   
O719     O      0.600930000000     0.833780000000     0.036470000000    -0.369034   
O720     O      0.561570000000     0.859790000000     0.529260000000    -0.35538    
O721     O      0.528270000000     0.710010000000     0.956380000000    -0.356696   
O722     O      0.044010000000     0.680890000000     0.997070000000    -0.358832   
O723     O      0.511620000000     0.812610000000     0.947950000000    -0.369683   
O724     O      0.008910000000     0.851140000000     0.983280000000    -0.357804   
O725     O      0.617470000000     0.732780000000     0.033020000000    -0.366008   
O726     O      0.595910000000     0.690410000000     0.542150000000    -0.357078   
O727     O      0.619310000000     0.786120000000     0.990570000000    -0.515024   
O728     O      0.639380000000     0.786710000000     0.569680000000    -0.328042   
O729     O      0.563950000000     0.766250000000     0.936780000000    -0.337082   
O730     O      0.988220000000     0.754510000000     0.929260000000    -0.510117   
O731     O      0.552490000000     0.801620000000     0.999340000000    -0.610899   
O732     O      0.562930000000     0.741860000000     0.004120000000    -0.462101   
O733     O      0.560830000000     0.807330000000     0.570570000000    -0.478344   
O734     O      0.995340000000     0.728610000000     0.005790000000    -0.621181   
O735     O      0.573780000000     0.743930000000     0.575400000000    -0.624847   
O736     O      0.983840000000     0.792460000000     0.000760000000    -0.469569   
O737     O      0.839820000000     0.590670000000     0.549280000000    -0.371835   
O738     O      0.871150000000     0.542400000000     0.034150000000    -0.349017   
O739     O      0.728700000000     0.497290000000     0.620660000000    -0.366342   
O740     O      0.695600000000     0.018380000000     0.594040000000    -0.35409    
O741     O      0.830350000000     0.483210000000     0.601960000000    -0.359739   
O742     O      0.864070000000     0.980770000000     0.558210000000    -0.363309   
O743     O      0.740650000000     0.607810000000     0.572030000000    -0.369267   
O744     O      0.703400000000     0.577390000000     0.068920000000    -0.362649   
O745     O      0.799570000000     0.595800000000     0.603620000000    -0.338411   
O746     O      0.796220000000     0.627250000000     0.039150000000    -0.522971   
O747     O      0.788940000000     0.523340000000     0.638680000000    -0.514521   
O748     O      0.776930000000     0.941050000000     0.615860000000    -0.336756   
O749     O      0.811640000000     0.534720000000     0.569390000000    -0.462034   
O750     O      0.752790000000     0.545800000000     0.580810000000    -0.611424   
O751     O      0.717270000000     0.063050000000     0.962720000000    -0.360111   
O752     O      0.684540000000     0.552350000000     0.004030000000    -0.355605   
O753     O      0.800750000000     0.931300000000     0.990630000000    -0.364626   
O754     O      0.846790000000     0.958590000000     0.499140000000    -0.349681   
O755     O      0.700610000000     0.955480000000     0.008240000000    -0.366661   
O756     O      0.678230000000     0.996780000000     0.530870000000    -0.356355   
O757     O      0.816520000000     0.037050000000     0.942020000000    -0.356033   
O758     O      0.853990000000     0.516730000000     0.971330000000    -0.362964   
O759     O      0.754550000000     0.027480000000     0.923240000000    -0.507147   
O760     O      0.776480000000     0.594570000000     0.948290000000    -0.338266   
O761     O      0.744930000000     0.948950000000     0.955070000000    -0.339699   
O762     O      0.748810000000     0.910170000000     0.523500000000    -0.51839    
O763     O      0.733640000000     0.008850000000     0.993330000000    -0.612854   
O764     O      0.791870000000     0.995660000000     0.981480000000    -0.451255   
O765     O      0.748430000000     0.571110000000     0.019050000000    -0.480815   
O766     O      0.800480000000     0.966620000000     0.545160000000    -0.622037   
O767     O      0.811850000000     0.556750000000     0.006340000000    -0.626122   
O768     O      0.737190000000     0.979600000000     0.558190000000    -0.475217   
Zr1      Zr     0.465540000000     0.510590000000     0.278330000000     1.29774    
Zr2      Zr     0.015030000000     0.087350000000     0.300550000000     1.29008    
Zr3      Zr     0.540890000000     0.464170000000     0.276600000000     1.29253    
Zr4      Zr     0.090540000000     0.041430000000     0.298990000000     1.28645    
Zr5      Zr     0.033330000000     0.538710000000     0.232090000000     1.26948    
Zr6      Zr     0.524920000000     0.012530000000     0.347380000000     1.25447    
Zr7      Zr     0.027360000000     0.274370000000     0.102720000000     1.28678    
Zr8      Zr     0.460730000000     0.255670000000     0.539070000000     1.28958    
Zr9      Zr     0.087560000000     0.280570000000     0.036260000000     1.30098    
Zr10     Zr     0.521640000000     0.261710000000     0.473400000000     1.29209    
Zr11     Zr     0.034740000000     0.215400000000     0.545260000000     1.26509    
Zr12     Zr     0.513890000000     0.325360000000     0.034500000000     1.26507    
Zr13     Zr     0.293620000000     0.072910000000     0.555510000000     1.29562    
Zr14     Zr     0.279380000000     0.490660000000     0.090550000000     1.29834    
Zr15     Zr     0.271720000000     0.042130000000     0.473960000000     1.29102    
Zr16     Zr     0.255860000000     0.462260000000     0.008490000000     1.28835    
Zr17     Zr     0.329990000000     0.505650000000     0.519640000000     1.26964    
Zr18     Zr     0.219660000000     0.030820000000     0.043950000000     1.26232    
Zr19     Zr     0.465250000000     0.510130000000     0.779370000000     1.2975     
Zr20     Zr     0.014560000000     0.087920000000     0.801390000000     1.28991    
Zr21     Zr     0.541330000000     0.464900000000     0.777680000000     1.29237    
Zr22     Zr     0.090480000000     0.042750000000     0.799520000000     1.2862     
Zr23     Zr     0.035000000000     0.539790000000     0.732810000000     1.26908    
Zr24     Zr     0.523640000000     0.013910000000     0.847800000000     1.25423    
Zr25     Zr     0.026070000000     0.277040000000     0.604970000000     1.28679    
Zr26     Zr     0.461050000000     0.257530000000     0.039830000000     1.29013    
Zr27     Zr     0.086920000000     0.283030000000     0.539090000000     1.30226    
Zr28     Zr     0.522330000000     0.263310000000     0.974460000000     1.29373    
Zr29     Zr     0.035350000000     0.212980000000     0.042640000000     1.26503    
Zr30     Zr     0.513290000000     0.323740000000     0.533490000000     1.26538    
Zr31     Zr     0.292110000000     0.074860000000     0.056540000000     1.29453    
Zr32     Zr     0.280580000000     0.491240000000     0.590020000000     1.29907    
Zr33     Zr     0.270200000000     0.045880000000     0.974260000000     1.29177    
Zr34     Zr     0.255880000000     0.462320000000     0.508550000000     1.29076    
Zr35     Zr     0.329240000000     0.506400000000     0.020840000000     1.26862    
Zr36     Zr     0.220800000000     0.029350000000     0.543820000000     1.26322    
Zr37     Zr     0.469570000000     0.007740000000     0.280330000000     1.28776    
Zr38     Zr     0.013540000000     0.588380000000     0.300220000000     1.29014    
Zr39     Zr     0.546450000000     0.963940000000     0.278070000000     1.29553    
Zr40     Zr     0.088930000000     0.542280000000     0.299250000000     1.28883    
Zr41     Zr     0.034530000000     0.037880000000     0.232210000000     1.26463    
Zr42     Zr     0.520290000000     0.513070000000     0.345920000000     1.26504    
Zr43     Zr     0.027830000000     0.774310000000     0.102270000000     1.28717    
Zr44     Zr     0.469120000000     0.753220000000     0.539880000000     1.29031    
Zr45     Zr     0.088050000000     0.780160000000     0.035800000000     1.30094    
Zr46     Zr     0.529220000000     0.760220000000     0.473610000000     1.29119    
Zr47     Zr     0.036960000000     0.715020000000     0.546810000000     1.26664    
Zr48     Zr     0.515210000000     0.825300000000     0.034510000000     1.26419    
Zr49     Zr     0.292970000000     0.574850000000     0.554610000000     1.29493    
Zr50     Zr     0.280160000000     0.990910000000     0.091320000000     1.3068     
Zr51     Zr     0.269070000000     0.545760000000     0.472970000000     1.29332    
Zr52     Zr     0.257290000000     0.962090000000     0.009200000000     1.29184    
Zr53     Zr     0.331640000000     0.003070000000     0.522820000000     1.25929    
Zr54     Zr     0.218470000000     0.530790000000     0.043930000000     1.2684     
Zr55     Zr     0.468180000000     0.009520000000     0.780840000000     1.28817    
Zr56     Zr     0.015100000000     0.588190000000     0.801870000000     1.29024    
Zr57     Zr     0.544280000000     0.964420000000     0.778860000000     1.29595    
Zr58     Zr     0.090370000000     0.541890000000     0.800230000000     1.28906    
Zr59     Zr     0.034740000000     0.039450000000     0.732480000000     1.26694    
Zr60     Zr     0.520650000000     0.514560000000     0.846500000000     1.26318    
Zr61     Zr     0.028440000000     0.777250000000     0.605800000000     1.28718    
Zr62     Zr     0.461790000000     0.757970000000     0.041010000000     1.28995    
Zr63     Zr     0.088780000000     0.782720000000     0.539400000000     1.30245    
Zr64     Zr     0.521410000000     0.763370000000     0.974040000000     1.29352    
Zr65     Zr     0.035440000000     0.712870000000     0.042210000000     1.26496    
Zr66     Zr     0.520630000000     0.821980000000     0.534030000000     1.26507    
Zr67     Zr     0.290980000000     0.574810000000     0.056130000000     1.29482    
Zr68     Zr     0.280740000000     0.990030000000     0.592400000000     1.30681    
Zr69     Zr     0.268400000000     0.546240000000     0.973900000000     1.29433    
Zr70     Zr     0.257880000000     0.959360000000     0.511010000000     1.29285    
Zr71     Zr     0.330570000000     0.006240000000     0.021950000000     1.25879    
Zr72     Zr     0.219660000000     0.531670000000     0.543670000000     1.26812    
Zr73     Zr     0.966270000000     0.512590000000     0.280010000000     1.30227    
Zr74     Zr     0.514850000000     0.084610000000     0.301130000000     1.29765    
Zr75     Zr     0.041920000000     0.466700000000     0.278620000000     1.28904    
Zr76     Zr     0.591480000000     0.040570000000     0.299410000000     1.28575    
Zr77     Zr     0.533080000000     0.537010000000     0.231300000000     1.2755     
Zr78     Zr     0.023430000000     0.015470000000     0.347430000000     1.25097    
Zr79     Zr     0.525180000000     0.274560000000     0.104020000000     1.29502    
Zr80     Zr     0.961370000000     0.260250000000     0.541360000000     1.29109    
Zr81     Zr     0.586560000000     0.280560000000     0.038680000000     1.30305    
Zr82     Zr     0.022090000000     0.265920000000     0.475470000000     1.28266    
Zr83     Zr     0.534290000000     0.211290000000     0.543270000000     1.27431    
Zr84     Zr     0.014890000000     0.325600000000     0.033770000000     1.2557     
Zr85     Zr     0.792040000000     0.075310000000     0.556950000000     1.29509    
Zr86     Zr     0.779550000000     0.490930000000     0.090650000000     1.29876    
Zr87     Zr     0.770320000000     0.046650000000     0.474510000000     1.29068    
Zr88     Zr     0.756290000000     0.461560000000     0.008890000000     1.28798    
Zr89     Zr     0.825730000000     0.510510000000     0.519870000000     1.2711     
Zr90     Zr     0.719640000000     0.030650000000     0.044080000000     1.262      
Zr91     Zr     0.967680000000     0.512900000000     0.779920000000     1.30299    
Zr92     Zr     0.514800000000     0.085760000000     0.800920000000     1.29805    
Zr93     Zr     0.043190000000     0.466840000000     0.777970000000     1.28718    
Zr94     Zr     0.590630000000     0.040420000000     0.799480000000     1.28589    
Zr95     Zr     0.531920000000     0.536840000000     0.731350000000     1.27685    
Zr96     Zr     0.023430000000     0.015560000000     0.847360000000     1.2489     
Zr97     Zr     0.525090000000     0.272930000000     0.602890000000     1.29562    
Zr98     Zr     0.962010000000     0.257840000000     0.039720000000     1.29192    
Zr99     Zr     0.586150000000     0.279150000000     0.537240000000     1.30245    
Zr100    Zr     0.022050000000     0.263840000000     0.973240000000     1.28495    
Zr101    Zr     0.534420000000     0.212870000000     0.044430000000     1.27387    
Zr102    Zr     0.014280000000     0.327980000000     0.535640000000     1.2568     
Zr103    Zr     0.792090000000     0.074790000000     0.056460000000     1.29462    
Zr104    Zr     0.776590000000     0.497260000000     0.590410000000     1.29877    
Zr105    Zr     0.769990000000     0.045780000000     0.974260000000     1.29193    
Zr106    Zr     0.753900000000     0.463370000000     0.510170000000     1.29075    
Zr107    Zr     0.829540000000     0.506050000000     0.020910000000     1.26873    
Zr108    Zr     0.719970000000     0.030710000000     0.544130000000     1.26254    
Zr109    Zr     0.967830000000     0.011450000000     0.280490000000     1.29546    
Zr110    Zr     0.513210000000     0.585730000000     0.300100000000     1.29768    
Zr111    Zr     0.043590000000     0.965760000000     0.278500000000     1.2952     
Zr112    Zr     0.588310000000     0.539090000000     0.298840000000     1.28906    
Zr113    Zr     0.535710000000     0.036170000000     0.232430000000     1.27019    
Zr114    Zr     0.021440000000     0.516580000000     0.347330000000     1.25529    
Zr115    Zr     0.527750000000     0.774120000000     0.103470000000     1.29511    
Zr116    Zr     0.963320000000     0.759330000000     0.542800000000     1.29185    
Zr117    Zr     0.587490000000     0.779670000000     0.036530000000     1.30198    
Zr118    Zr     0.023510000000     0.764550000000     0.476430000000     1.28219    
Zr119    Zr     0.543440000000     0.709660000000     0.543060000000     1.27116    
Zr120    Zr     0.015650000000     0.825610000000     0.033330000000     1.2557     
Zr121    Zr     0.784950000000     0.579650000000     0.550970000000     1.29388    
Zr122    Zr     0.780330000000     0.990790000000     0.091250000000     1.30663    
Zr123    Zr     0.763790000000     0.545530000000     0.470590000000     1.29268    
Zr124    Zr     0.757280000000     0.961970000000     0.009220000000     1.29151    
Zr125    Zr     0.831150000000     0.007280000000     0.521860000000     1.26008    
Zr126    Zr     0.718610000000     0.530380000000     0.043420000000     1.26814    
Zr127    Zr     0.968130000000     0.011800000000     0.780170000000     1.29517    
Zr128    Zr     0.511900000000     0.586360000000     0.799420000000     1.29768    
Zr129    Zr     0.044320000000     0.966860000000     0.777920000000     1.29535    
Zr130    Zr     0.587740000000     0.540840000000     0.798270000000     1.28883    
Zr131    Zr     0.534710000000     0.036410000000     0.732580000000     1.27026    
Zr132    Zr     0.022600000000     0.515500000000     0.847510000000     1.25532    
Zr133    Zr     0.534020000000     0.771060000000     0.603040000000     1.29539    
Zr134    Zr     0.962380000000     0.758130000000     0.039280000000     1.29174    
Zr135    Zr     0.594250000000     0.778330000000     0.536850000000     1.30114    
Zr136    Zr     0.022440000000     0.763810000000     0.972790000000     1.28493    
Zr137    Zr     0.534720000000     0.712540000000     0.043470000000     1.274      
Zr138    Zr     0.015910000000     0.827230000000     0.535890000000     1.25731    
Zr139    Zr     0.790990000000     0.574730000000     0.055300000000     1.29478    
Zr140    Zr     0.780910000000     0.991040000000     0.591160000000     1.30689    
Zr141    Zr     0.768690000000     0.545180000000     0.973350000000     1.29449    
Zr142    Zr     0.758220000000     0.962550000000     0.508900000000     1.29417    
Zr143    Zr     0.830560000000     0.006220000000     0.021760000000     1.25876    
Zr144    Zr     0.714220000000     0.532370000000     0.541650000000     1.26918    


