data_structure

_audit_creation_method RASPA-1.0
_audit_creation_date 2023-5-9
_audit_author_name 'Poobodin Mano'

_cell_length_a    42.6094
_cell_length_b    42.5622
_cell_length_c    42.4441
_cell_angle_alpha 90
_cell_angle_beta  90
_cell_angle_gamma 90
_cell_volume      76974.5

_symmetry_cell_setting          triclinic
_symmetry_space_group_name_Hall 'P 1'
_symmetry_space_group_name_H-M  'P 1'
_symmetry_Int_Tables_number     1

_symmetry_equiv_pos_as_xyz 'x,y,z'

loop_
_atom_site_label
_atom_site_type_symbol
_atom_site_fract_x
_atom_site_fract_y
_atom_site_fract_z
_atom_site_charge
C1       C      0.951260000000     0.036310000000     0.128720000000     0.375766   
C2       C      0.035980000000     0.967750000000     0.293010000000     0.376119   
C3       C      0.035120000000     0.963000000000     0.129250000000     0.376711   
C4       C      0.945210000000     0.036370000000     0.292930000000     0.381184   
C5       C      0.382520000000     0.449630000000     0.294260000000     0.378132   
C6       C      0.459530000000     0.381920000000     0.129890000000     0.379838   
C7       C      0.470610000000     0.383350000000     0.293840000000     0.380739   
C8       C      0.380720000000     0.450770000000     0.130030000000     0.376535   
C9       C      0.036820000000     0.128250000000     0.953550000000     0.379779   
C10      C      0.964500000000     0.291140000000     0.037710000000     0.379261   
C11      C      0.963770000000     0.127500000000     0.037260000000     0.375017   
C12      C      0.036790000000     0.291900000000     0.954580000000     0.378721   
C13      C      0.457040000000     0.291980000000     0.382750000000     0.378202   
C14      C      0.382810000000     0.128000000000     0.458150000000     0.378716   
C15      C      0.382540000000     0.291520000000     0.462910000000     0.378321   
C16      C      0.456280000000     0.128230000000     0.382100000000     0.376386   
C17      C      0.291160000000     0.037260000000     0.964830000000     0.378796   
C18      C      0.126770000000     0.967590000000     0.038460000000     0.379674   
C19      C      0.290510000000     0.965600000000     0.040360000000     0.379073   
C20      C      0.127800000000     0.037370000000     0.960790000000     0.379799   
C21      C      0.127970000000     0.457730000000     0.384140000000     0.375886   
C22      C      0.291010000000     0.382940000000     0.469380000000     0.377832   
C23      C      0.127440000000     0.382920000000     0.467900000000     0.378812   
C24      C      0.291480000000     0.457860000000     0.385360000000     0.376963   
C25      C      0.347690000000     0.370030000000     0.475330000000    -0.0126472  
C26      C      0.306990000000     0.327440000000     0.979930000000    -0.0130964  
C27      C      0.368490000000     0.347790000000     0.455980000000    -0.0130182  
C28      C      0.325990000000     0.306610000000     0.957890000000    -0.0123996  
C29      C      0.306580000000     0.093010000000     0.971930000000    -0.0132175  
C30      C      0.347630000000     0.050780000000     0.971870000000    -0.0131907  
C31      C      0.327100000000     0.112930000000     0.450410000000    -0.0136177  
C32      C      0.368940000000     0.071490000000     0.451630000000    -0.0135913  
C33      C      0.111590000000     0.327020000000     0.472750000000    -0.0121978  
C34      C      0.070450000000     0.369090000000     0.972770000000    -0.0134935  
C35      C      0.092900000000     0.308020000000     0.448760000000    -0.0127672  
C36      C      0.050430000000     0.348790000000     0.950520000000    -0.0133994  
C37      C      0.050300000000     0.071490000000     0.446390000000    -0.0123697  
C38      C      0.092340000000     0.112400000000     0.442170000000    -0.0113713  
C39      C      0.071570000000     0.051130000000     0.968140000000    -0.0127517  
C40      C      0.112810000000     0.093300000000     0.965740000000    -0.0127055  
C41      C      0.307140000000     0.962820000000     0.328830000000    -0.0136813  
C42      C      0.348230000000     0.964030000000     0.371390000000    -0.0133816  
C43      C      0.327750000000     0.438380000000     0.310260000000    -0.0122824  
C44      C      0.369830000000     0.442290000000     0.351130000000    -0.0125192  
C45      C      0.112350000000     0.453420000000     0.328000000000    -0.0132161  
C46      C      0.071280000000     0.952290000000     0.370200000000    -0.0131715  
C47      C      0.091980000000     0.475590000000     0.308520000000    -0.0130726  
C48      C      0.049900000000     0.973140000000     0.349840000000    -0.0126049  
C49      C      0.091400000000     0.457640000000     0.114130000000    -0.0142767  
C50      C      0.048910000000     0.957030000000     0.072690000000    -0.0148653  
C51      C      0.110730000000     0.479640000000     0.093710000000    -0.0116042  
C52      C      0.070280000000     0.976160000000     0.050800000000    -0.00590476 
C53      C      0.366790000000     0.446800000000     0.073080000000    -0.0134622  
C54      C      0.324880000000     0.444700000000     0.114410000000    -0.0142564  
C55      C      0.347190000000     0.970290000000     0.054270000000    -0.0133151  
C56      C      0.306130000000     0.969450000000     0.096590000000    -0.0123648  
C57      C      0.431920000000     0.091120000000     0.308890000000    -0.0110987  
C58      C      0.940070000000     0.049870000000     0.349870000000    -0.0121057  
C59      C      0.454980000000     0.112580000000     0.325920000000    -0.0144946  
C60      C      0.962310000000     0.071630000000     0.368060000000    -0.0137599  
C61      C      0.955810000000     0.308070000000     0.326320000000    -0.0155237  
C62      C      0.451900000000     0.348750000000     0.369250000000    -0.0132468  
C63      C      0.980610000000     0.327970000000     0.309920000000    -0.00556227 
C64      C      0.474700000000     0.369940000000     0.350950000000    -0.0125712  
C65      C      0.454550000000     0.325920000000     0.114790000000    -0.0129243  
C66      C      0.950210000000     0.367940000000     0.073540000000    -0.0127161  
C67      C      0.475630000000     0.306550000000     0.093280000000    -0.0121803  
C68      C      0.970230000000     0.347700000000     0.051410000000    -0.0130231  
C69      C      0.947850000000     0.049680000000     0.071570000000    -0.0131918  
C70      C      0.445220000000     0.092360000000     0.112530000000    -0.0124115  
C71      C      0.968970000000     0.070730000000     0.051080000000    -0.013892   
C72      C      0.468840000000     0.111720000000     0.093780000000    -0.0143389  
C73      C      0.951720000000     0.036220000000     0.628630000000     0.375678   
C74      C      0.036090000000     0.967500000000     0.793000000000     0.376128   
C75      C      0.035250000000     0.962800000000     0.629240000000     0.376767   
C76      C      0.945470000000     0.036350000000     0.792860000000     0.381071   
C77      C      0.382600000000     0.449540000000     0.794220000000     0.378203   
C78      C      0.459840000000     0.381780000000     0.629890000000     0.379499   
C79      C      0.470860000000     0.383330000000     0.793810000000     0.381005   
C80      C      0.380830000000     0.450720000000     0.629990000000     0.376388   
C81      C      0.037270000000     0.128240000000     0.452230000000     0.379855   
C82      C      0.965750000000     0.291040000000     0.537810000000     0.377884   
C83      C      0.964800000000     0.127330000000     0.537170000000     0.376734   
C84      C      0.037120000000     0.291970000000     0.453780000000     0.37836    
C85      C      0.457280000000     0.291940000000     0.882620000000     0.378098   
C86      C      0.382350000000     0.127960000000     0.957560000000     0.378333   
C87      C      0.382020000000     0.291560000000     0.961760000000     0.378205   
C88      C      0.456550000000     0.128190000000     0.882080000000     0.376422   
C89      C      0.291310000000     0.037580000000     0.465210000000     0.378976   
C90      C      0.126860000000     0.967650000000     0.538480000000     0.379963   
C91      C      0.290590000000     0.965590000000     0.540340000000     0.379163   
C92      C      0.127890000000     0.037900000000     0.460990000000     0.379777   
C93      C      0.127950000000     0.456980000000     0.884130000000     0.375782   
C94      C      0.290980000000     0.382570000000     0.969950000000     0.37757    
C95      C      0.127340000000     0.382600000000     0.968690000000     0.378751   
C96      C      0.291460000000     0.457150000000     0.885390000000     0.376493   
C97      C      0.347740000000     0.369620000000     0.975680000000    -0.0141288  
C98      C      0.306910000000     0.327950000000     0.479910000000    -0.0116907  
C99      C      0.368000000000     0.347960000000     0.955120000000    -0.0126718  
C100     C      0.326540000000     0.306370000000     0.459180000000    -0.0124157  
C101     C      0.306890000000     0.093260000000     0.472490000000    -0.0131495  
C102     C      0.347810000000     0.050910000000     0.472430000000    -0.0132369  
C103     C      0.326700000000     0.112710000000     0.949790000000    -0.0135929  
C104     C      0.368650000000     0.071410000000     0.951010000000    -0.0136254  
C105     C      0.111350000000     0.326790000000     0.974190000000    -0.0124679  
C106     C      0.070590000000     0.369220000000     0.471590000000    -0.0133579  
C107     C      0.092670000000     0.307800000000     0.950200000000    -0.0123435  
C108     C      0.050530000000     0.348900000000     0.449370000000    -0.0134978  
C109     C      0.049880000000     0.071570000000     0.947880000000    -0.0122428  
C110     C      0.091930000000     0.112500000000     0.944010000000    -0.0111698  
C111     C      0.071570000000     0.051760000000     0.467780000000    -0.0127574  
C112     C      0.112770000000     0.093930000000     0.464980000000    -0.0127655  
C113     C      0.307090000000     0.962140000000     0.828890000000    -0.0135967  
C114     C      0.348180000000     0.963480000000     0.871450000000    -0.0134663  
C115     C      0.327890000000     0.437990000000     0.810200000000    -0.0122853  
C116     C      0.369940000000     0.442040000000     0.851080000000    -0.0125839  
C117     C      0.112320000000     0.452670000000     0.827980000000    -0.0131357  
C118     C      0.071240000000     0.951710000000     0.870170000000    -0.0130123  
C119     C      0.092120000000     0.475020000000     0.808540000000    -0.0131601  
C120     C      0.050010000000     0.972740000000     0.849850000000    -0.0128487  
C121     C      0.091520000000     0.457370000000     0.614110000000    -0.0143291  
C122     C      0.049040000000     0.956890000000     0.572680000000    -0.0148072  
C123     C      0.110830000000     0.479490000000     0.593800000000    -0.0115965  
C124     C      0.070370000000     0.976150000000     0.550880000000    -0.00586606 
C125     C      0.366900000000     0.446780000000     0.573040000000    -0.0134554  
C126     C      0.324990000000     0.444580000000     0.614370000000    -0.0143276  
C127     C      0.347270000000     0.970240000000     0.554250000000    -0.013292   
C128     C      0.306210000000     0.969280000000     0.596580000000    -0.0124752  
C129     C      0.432490000000     0.091170000000     0.808800000000    -0.0111917  
C130     C      0.940300000000     0.049900000000     0.849790000000    -0.0120652  
C131     C      0.455610000000     0.112500000000     0.825900000000    -0.0143735  
C132     C      0.962560000000     0.071570000000     0.868060000000    -0.0138148  
C133     C      0.956410000000     0.308010000000     0.826180000000    -0.0155134  
C134     C      0.452130000000     0.348680000000     0.869090000000    -0.0131564  
C135     C      0.981220000000     0.328030000000     0.809920000000    -0.00551193 
C136     C      0.474950000000     0.369940000000     0.850920000000    -0.0125477  
C137     C      0.455280000000     0.325740000000     0.614780000000    -0.0128273  
C138     C      0.951010000000     0.367690000000     0.573500000000    -0.0129234  
C139     C      0.476590000000     0.306530000000     0.593370000000    -0.0123077  
C140     C      0.971340000000     0.347640000000     0.551480000000    -0.0127696  
C141     C      0.948510000000     0.049620000000     0.571470000000    -0.0132659  
C142     C      0.446110000000     0.092330000000     0.612470000000    -0.0123132  
C143     C      0.969790000000     0.070520000000     0.550980000000    -0.0137535  
C144     C      0.469880000000     0.111530000000     0.593740000000    -0.0145646  
C145     C      0.951850000000     0.536260000000     0.128660000000     0.375799   
C146     C      0.036340000000     0.467700000000     0.293010000000     0.375615   
C147     C      0.035530000000     0.462250000000     0.129190000000     0.37598    
C148     C      0.945710000000     0.536380000000     0.292840000000     0.381559   
C149     C      0.382060000000     0.949560000000     0.294220000000     0.378308   
C150     C      0.459590000000     0.881990000000     0.129850000000     0.379389   
C151     C      0.470470000000     0.883380000000     0.293820000000     0.380849   
C152     C      0.380470000000     0.950510000000     0.129970000000     0.377127   
C153     C      0.036940000000     0.628260000000     0.953340000000     0.379942   
C154     C      0.964650000000     0.791160000000     0.037640000000     0.379304   
C155     C      0.964070000000     0.627500000000     0.037180000000     0.375191   
C156     C      0.036870000000     0.791880000000     0.954230000000     0.378761   
C157     C      0.457070000000     0.791960000000     0.382690000000     0.378226   
C158     C      0.382940000000     0.627960000000     0.458100000000     0.378405   
C159     C      0.382680000000     0.791540000000     0.462700000000     0.378199   
C160     C      0.456430000000     0.628240000000     0.382050000000     0.376578   
C161     C      0.291260000000     0.537120000000     0.964610000000     0.378903   
C162     C      0.126780000000     0.468320000000     0.038790000000     0.378393   
C163     C      0.290550000000     0.465940000000     0.040660000000     0.378872   
C164     C      0.127900000000     0.537400000000     0.960630000000     0.379984   
C165     C      0.127920000000     0.957830000000     0.383820000000     0.376181   
C166     C      0.291110000000     0.883040000000     0.468520000000     0.377747   
C167     C      0.127580000000     0.882870000000     0.467170000000     0.378689   
C168     C      0.291510000000     0.959430000000     0.384910000000     0.377116   
C169     C      0.347780000000     0.870150000000     0.474550000000    -0.0127655  
C170     C      0.307060000000     0.827570000000     0.979230000000    -0.013065   
C171     C      0.368670000000     0.847770000000     0.455460000000    -0.012911   
C172     C      0.326150000000     0.806610000000     0.957390000000    -0.0125479  
C173     C      0.306670000000     0.592880000000     0.971620000000    -0.013222   
C174     C      0.347740000000     0.550650000000     0.971580000000    -0.0133003  
C175     C      0.327260000000     0.612870000000     0.450220000000    -0.0135887  
C176     C      0.369110000000     0.571450000000     0.451480000000    -0.0137046  
C177     C      0.111780000000     0.826950000000     0.471910000000    -0.0124325  
C178     C      0.070620000000     0.869010000000     0.972260000000    -0.0135394  
C179     C      0.092940000000     0.808000000000     0.448010000000    -0.0126798  
C180     C      0.050490000000     0.848760000000     0.950070000000    -0.0133008  
C181     C      0.050380000000     0.571490000000     0.446220000000    -0.0123842  
C182     C      0.092390000000     0.612390000000     0.441720000000    -0.0113103  
C183     C      0.071700000000     0.551230000000     0.967990000000    -0.0127029  
C184     C      0.112970000000     0.593370000000     0.965240000000    -0.012716   
C185     C      0.306950000000     0.460310000000     0.329300000000    -0.0130746  
C186     C      0.348080000000     0.462390000000     0.371820000000    -0.0131355  
C187     C      0.327020000000     0.939630000000     0.310300000000    -0.0120674  
C188     C      0.369190000000     0.942690000000     0.351160000000    -0.0124393  
C189     C      0.112230000000     0.953510000000     0.327680000000    -0.0148333  
C190     C      0.071320000000     0.452720000000     0.370400000000    -0.012948   
C191     C      0.091650000000     0.975670000000     0.308430000000    -0.00662563 
C192     C      0.050080000000     0.473520000000     0.349850000000    -0.0129411  
C193     C      0.090960000000     0.958540000000     0.114370000000    -0.0154999  
C194     C      0.049300000000     0.456520000000     0.072510000000    -0.0133839  
C195     C      0.110830000000     0.979370000000     0.093270000000    -0.00514517 
C196     C      0.070220000000     0.476750000000     0.051170000000    -0.0125324  
C197     C      0.366670000000     0.946370000000     0.073000000000    -0.0132513  
C198     C      0.324670000000     0.944340000000     0.114230000000    -0.0141141  
C199     C      0.347250000000     0.470740000000     0.054450000000    -0.0130912  
C200     C      0.306280000000     0.469820000000     0.096850000000    -0.0122996  
C201     C      0.432320000000     0.591120000000     0.308770000000    -0.0110608  
C202     C      0.940410000000     0.549880000000     0.349770000000    -0.0121845  
C203     C      0.455300000000     0.612590000000     0.325880000000    -0.0143966  
C204     C      0.962580000000     0.571650000000     0.368020000000    -0.0136432  
C205     C      0.955870000000     0.808060000000     0.326270000000    -0.0155122  
C206     C      0.451850000000     0.848720000000     0.369200000000    -0.0131378  
C207     C      0.980630000000     0.828020000000     0.309880000000    -0.00557008 
C208     C      0.474620000000     0.869950000000     0.350920000000    -0.0126361  
C209     C      0.454800000000     0.825980000000     0.114740000000    -0.0129326  
C210     C      0.950400000000     0.868000000000     0.073490000000    -0.0127354  
C211     C      0.475840000000     0.806610000000     0.093200000000    -0.0122298  
C212     C      0.970370000000     0.847740000000     0.051320000000    -0.0130704  
C213     C      0.948410000000     0.549630000000     0.071520000000    -0.0132859  
C214     C      0.445770000000     0.592300000000     0.112480000000    -0.0122293  
C215     C      0.969430000000     0.570740000000     0.050970000000    -0.0138224  
C216     C      0.469310000000     0.611720000000     0.093690000000    -0.014554   
C217     C      0.952310000000     0.536170000000     0.628570000000     0.375698   
C218     C      0.036430000000     0.467480000000     0.793000000000     0.375568   
C219     C      0.035650000000     0.462060000000     0.629180000000     0.376143   
C220     C      0.945950000000     0.536370000000     0.792770000000     0.381635   
C221     C      0.382160000000     0.949450000000     0.794180000000     0.378332   
C222     C      0.459920000000     0.881850000000     0.629860000000     0.379296   
C223     C      0.470730000000     0.883350000000     0.793790000000     0.381169   
C224     C      0.380590000000     0.950450000000     0.629920000000     0.377028   
C225     C      0.037380000000     0.628250000000     0.452030000000     0.379996   
C226     C      0.965890000000     0.791070000000     0.537740000000     0.377496   
C227     C      0.965090000000     0.627330000000     0.537090000000     0.376714   
C228     C      0.037200000000     0.791940000000     0.453450000000     0.378582   
C229     C      0.457310000000     0.791920000000     0.882560000000     0.378232   
C230     C      0.382500000000     0.627910000000     0.957520000000     0.37831    
C231     C      0.382150000000     0.791570000000     0.961550000000     0.378039   
C232     C      0.456710000000     0.628200000000     0.882030000000     0.376545   
C233     C      0.291400000000     0.537450000000     0.464980000000     0.379262   
C234     C      0.126850000000     0.468400000000     0.538820000000     0.378835   
C235     C      0.290620000000     0.465960000000     0.540650000000     0.378776   
C236     C      0.127980000000     0.537920000000     0.460820000000     0.379947   
C237     C      0.127900000000     0.957060000000     0.883830000000     0.375883   
C238     C      0.291080000000     0.882670000000     0.969120000000     0.377558   
C239     C      0.127470000000     0.882540000000     0.967970000000     0.378752   
C240     C      0.291480000000     0.958690000000     0.884960000000     0.377062   
C241     C      0.347830000000     0.869740000000     0.974910000000    -0.0130121  
C242     C      0.306970000000     0.828070000000     0.479170000000    -0.0117633  
C243     C      0.368180000000     0.847940000000     0.954590000000    -0.0129824  
C244     C      0.326710000000     0.806390000000     0.458680000000    -0.0123723  
C245     C      0.306970000000     0.593150000000     0.472160000000    -0.0132519  
C246     C      0.347900000000     0.550790000000     0.472130000000    -0.0132509  
C247     C      0.326860000000     0.612640000000     0.949610000000    -0.0137162  
C248     C      0.368830000000     0.571360000000     0.950870000000    -0.0136003  
C249     C      0.111550000000     0.826700000000     0.973330000000    -0.0125539  
C250     C      0.070750000000     0.869140000000     0.471080000000    -0.013398   
C251     C      0.092710000000     0.807770000000     0.949420000000    -0.0122734  
C252     C      0.050590000000     0.848870000000     0.448940000000    -0.0134611  
C253     C      0.049970000000     0.571570000000     0.947690000000    -0.0122937  
C254     C      0.092000000000     0.612490000000     0.943530000000    -0.0111926  
C255     C      0.071690000000     0.551850000000     0.467640000000    -0.0127249  
C256     C      0.112930000000     0.593990000000     0.464500000000    -0.0128409  
C257     C      0.306910000000     0.459660000000     0.829350000000    -0.0131098  
C258     C      0.348030000000     0.461860000000     0.871870000000    -0.0130301  
C259     C      0.327160000000     0.939210000000     0.810230000000    -0.0121929  
C260     C      0.369310000000     0.942400000000     0.851100000000    -0.0124112  
C261     C      0.112210000000     0.952730000000     0.827680000000    -0.0130587  
C262     C      0.071280000000     0.452140000000     0.870370000000    -0.0131114  
C263     C      0.091790000000     0.975080000000     0.808460000000    -0.0130843  
C264     C      0.050190000000     0.473130000000     0.849850000000    -0.0127558  
C265     C      0.091090000000     0.958230000000     0.614350000000    -0.0156005  
C266     C      0.049420000000     0.456390000000     0.572500000000    -0.0133081  
C267     C      0.110940000000     0.979180000000     0.593350000000    -0.00505064 
C268     C      0.070300000000     0.476770000000     0.551260000000    -0.0125177  
C269     C      0.366790000000     0.946330000000     0.572950000000    -0.0132983  
C270     C      0.324800000000     0.944190000000     0.614180000000    -0.0140111  
C271     C      0.347330000000     0.470720000000     0.554430000000    -0.0132341  
C272     C      0.306360000000     0.469700000000     0.596850000000    -0.0122765  
C273     C      0.432900000000     0.591180000000     0.808680000000    -0.0110827  
C274     C      0.940630000000     0.549900000000     0.849690000000    -0.0121693  
C275     C      0.455960000000     0.612520000000     0.825850000000    -0.0144034  
C276     C      0.962830000000     0.571590000000     0.868020000000    -0.0137354  
C277     C      0.956450000000     0.808010000000     0.826120000000    -0.0154715  
C278     C      0.452090000000     0.848660000000     0.869040000000    -0.0132557  
C279     C      0.981220000000     0.828070000000     0.809880000000    -0.00553453 
C280     C      0.474880000000     0.869950000000     0.850890000000    -0.0124743  
C281     C      0.455550000000     0.825800000000     0.614740000000    -0.0129111  
C282     C      0.951200000000     0.867750000000     0.573460000000    -0.0128523  
C283     C      0.476820000000     0.806590000000     0.593280000000    -0.0123579  
C284     C      0.971470000000     0.847680000000     0.551390000000    -0.0129221  
C285     C      0.949060000000     0.549560000000     0.571420000000    -0.0134518  
C286     C      0.446660000000     0.592280000000     0.612420000000    -0.0122619  
C287     C      0.970240000000     0.570530000000     0.550870000000    -0.0136234  
C288     C      0.470340000000     0.611530000000     0.593640000000    -0.0145978  
C289     C      0.450860000000     0.036590000000     0.128750000000     0.375168   
C290     C      0.535940000000     0.968060000000     0.293060000000     0.37641    
C291     C      0.535110000000     0.963530000000     0.129290000000     0.376772   
C292     C      0.444820000000     0.036480000000     0.293000000000     0.381042   
C293     C      0.882530000000     0.449560000000     0.294250000000     0.378319   
C294     C      0.958760000000     0.381700000000     0.129860000000     0.380297   
C295     C      0.970690000000     0.383140000000     0.293830000000     0.38143    
C296     C      0.880700000000     0.450780000000     0.130040000000     0.376708   
C297     C      0.536800000000     0.128180000000     0.953520000000     0.379972   
C298     C      0.465310000000     0.291230000000     0.037880000000     0.379204   
C299     C      0.464290000000     0.127520000000     0.037640000000     0.374743   
C300     C      0.536870000000     0.291840000000     0.954630000000     0.378906   
C301     C      0.956760000000     0.292010000000     0.382470000000     0.378385   
C302     C      0.882780000000     0.127960000000     0.457480000000     0.378671   
C303     C      0.882420000000     0.291490000000     0.462420000000     0.378344   
C304     C      0.957070000000     0.128230000000     0.381710000000     0.376642   
C305     C      0.791170000000     0.037240000000     0.964570000000     0.378814   
C306     C      0.626780000000     0.967720000000     0.038440000000     0.379764   
C307     C      0.790510000000     0.965650000000     0.040330000000     0.379393   
C308     C      0.627790000000     0.037340000000     0.960660000000     0.379869   
C309     C      0.627940000000     0.457780000000     0.384130000000     0.375808   
C310     C      0.790990000000     0.382920000000     0.469320000000     0.378044   
C311     C      0.627450000000     0.382900000000     0.467940000000     0.378621   
C312     C      0.791470000000     0.457820000000     0.385330000000     0.376743   
C313     C      0.847680000000     0.369960000000     0.475140000000    -0.0127249  
C314     C      0.806960000000     0.327370000000     0.979760000000    -0.0130456  
C315     C      0.868380000000     0.347780000000     0.455620000000    -0.0129335  
C316     C      0.825860000000     0.306590000000     0.957580000000    -0.0125308  
C317     C      0.806600000000     0.093030000000     0.971390000000    -0.0133511  
C318     C      0.847660000000     0.050780000000     0.971450000000    -0.0132794  
C319     C      0.827100000000     0.112830000000     0.449690000000    -0.0135604  
C320     C      0.868940000000     0.071420000000     0.451080000000    -0.0136665  
C321     C      0.611630000000     0.326990000000     0.472800000000    -0.0123373  
C322     C      0.570470000000     0.369030000000     0.972800000000    -0.0135601  
C323     C      0.592990000000     0.307990000000     0.448780000000    -0.0125221  
C324     C      0.550500000000     0.348720000000     0.950500000000    -0.013338   
C325     C      0.550240000000     0.071410000000     0.446380000000    -0.0124822  
C326     C      0.592260000000     0.112310000000     0.441960000000    -0.011478   
C327     C      0.571570000000     0.051100000000     0.968070000000    -0.0126418  
C328     C      0.612800000000     0.093280000000     0.965410000000    -0.0127171  
C329     C      0.807140000000     0.962750000000     0.328820000000    -0.0135764  
C330     C      0.848220000000     0.963980000000     0.371380000000    -0.0134395  
C331     C      0.827760000000     0.438330000000     0.310250000000    -0.0122181  
C332     C      0.869830000000     0.442250000000     0.351130000000    -0.0125905  
C333     C      0.612300000000     0.453660000000     0.327970000000    -0.013244   
C334     C      0.571240000000     0.952390000000     0.370190000000    -0.0131063  
C335     C      0.591940000000     0.475910000000     0.308580000000    -0.0131104  
C336     C      0.549860000000     0.973310000000     0.349910000000    -0.0126891  
C337     C      0.591400000000     0.458250000000     0.114190000000    -0.0142149  
C338     C      0.548910000000     0.957460000000     0.072750000000    -0.0150293  
C339     C      0.610770000000     0.480090000000     0.093630000000    -0.0117097  
C340     C      0.570310000000     0.976410000000     0.050760000000    -0.00573523 
C341     C      0.866760000000     0.446810000000     0.073080000000    -0.0136713  
C342     C      0.824830000000     0.444870000000     0.114420000000    -0.0143045  
C343     C      0.847200000000     0.970300000000     0.054240000000    -0.0132498  
C344     C      0.806130000000     0.969610000000     0.096550000000    -0.0123679  
C345     C      0.932790000000     0.091160000000     0.308770000000    -0.0108044  
C346     C      0.439240000000     0.049760000000     0.349940000000    -0.0122719  
C347     C      0.956170000000     0.112480000000     0.325510000000    -0.0145834  
C348     C      0.461130000000     0.071650000000     0.368400000000    -0.0135554  
C349     C      0.456360000000     0.308000000000     0.326610000000    -0.0139843  
C350     C      0.951500000000     0.348800000000     0.369000000000    -0.0131987  
C351     C      0.480720000000     0.328220000000     0.309950000000    -0.0106203  
C352     C      0.974750000000     0.369720000000     0.350940000000    -0.0124767  
C353     C      0.953070000000     0.325740000000     0.114760000000    -0.0126196  
C354     C      0.451490000000     0.368080000000     0.073530000000    -0.0127888  
C355     C      0.974130000000     0.306340000000     0.093260000000    -0.0124547  
C356     C      0.471450000000     0.347820000000     0.051360000000    -0.0129054  
C357     C      0.447540000000     0.049990000000     0.071550000000    -0.0134936  
C358     C      0.945490000000     0.092030000000     0.112550000000    -0.0119254  
C359     C      0.469380000000     0.070690000000     0.051440000000    -0.0138823  
C360     C      0.968390000000     0.111800000000     0.093370000000    -0.0143085  
C361     C      0.451300000000     0.036520000000     0.628690000000     0.374836   
C362     C      0.536040000000     0.967790000000     0.793050000000     0.376285   
C363     C      0.535230000000     0.963310000000     0.629290000000     0.377091   
C364     C      0.445090000000     0.036450000000     0.792950000000     0.381093   
C365     C      0.882620000000     0.449450000000     0.794210000000     0.378273   
C366     C      0.959220000000     0.381530000000     0.629870000000     0.380092   
C367     C      0.970960000000     0.383120000000     0.793800000000     0.381583   
C368     C      0.880820000000     0.450680000000     0.629980000000     0.376457   
C369     C      0.537240000000     0.128170000000     0.452200000000     0.37999    
C370     C      0.466340000000     0.291140000000     0.537960000000     0.379025   
C371     C      0.465280000000     0.127410000000     0.537610000000     0.374215   
C372     C      0.537220000000     0.291900000000     0.453820000000     0.378797   
C373     C      0.956970000000     0.291980000000     0.882320000000     0.378671   
C374     C      0.882330000000     0.127910000000     0.956930000000     0.37847    
C375     C      0.881900000000     0.291510000000     0.961300000000     0.378371   
C376     C      0.957310000000     0.128200000000     0.881660000000     0.376694   
C377     C      0.791320000000     0.037580000000     0.464970000000     0.379003   
C378     C      0.626860000000     0.967760000000     0.538470000000     0.379703   
C379     C      0.790590000000     0.965620000000     0.540310000000     0.379255   
C380     C      0.627890000000     0.037880000000     0.460910000000     0.379809   
C381     C      0.627920000000     0.456970000000     0.884120000000     0.375819   
C382     C      0.790960000000     0.382530000000     0.969920000000     0.377658   
C383     C      0.627350000000     0.382560000000     0.968740000000     0.378713   
C384     C      0.791450000000     0.457050000000     0.885370000000     0.37651    
C385     C      0.847720000000     0.369530000000     0.975510000000    -0.0140489  
C386     C      0.806880000000     0.327880000000     0.479690000000    -0.0116582  
C387     C      0.867890000000     0.347930000000     0.954780000000    -0.0126955  
C388     C      0.826420000000     0.306380000000     0.458800000000    -0.0123967  
C389     C      0.806920000000     0.093300000000     0.471920000000    -0.0132301  
C390     C      0.847830000000     0.050940000000     0.472020000000    -0.0131885  
C391     C      0.826690000000     0.112610000000     0.949120000000    -0.0135441  
C392     C      0.868650000000     0.071340000000     0.950480000000    -0.0135855  
C393     C      0.611390000000     0.326740000000     0.974250000000    -0.0125649  
C394     C      0.570600000000     0.369160000000     0.471610000000    -0.0133792  
C395     C      0.592750000000     0.307740000000     0.950240000000    -0.0122667  
C396     C      0.550600000000     0.348840000000     0.449350000000    -0.013354   
C397     C      0.549810000000     0.071480000000     0.947830000000    -0.0123853  
C398     C      0.591850000000     0.112400000000     0.943690000000    -0.0111877  
C399     C      0.571560000000     0.051730000000     0.467770000000    -0.0129287  
C400     C      0.612750000000     0.093920000000     0.464760000000    -0.0127736  
C401     C      0.807080000000     0.962010000000     0.828860000000    -0.0137207  
C402     C      0.848160000000     0.963390000000     0.871430000000    -0.0134081  
C403     C      0.827910000000     0.437890000000     0.810170000000    -0.012297   
C404     C      0.869940000000     0.441970000000     0.851060000000    -0.0124382  
C405     C      0.612270000000     0.452820000000     0.827960000000    -0.0132383  
C406     C      0.571200000000     0.951750000000     0.870170000000    -0.0130327  
C407     C      0.592080000000     0.475250000000     0.808610000000    -0.0129645  
C408     C      0.549980000000     0.972860000000     0.849920000000    -0.0128957  
C409     C      0.591500000000     0.457910000000     0.614180000000    -0.0141674  
C410     C      0.549020000000     0.957300000000     0.572740000000    -0.0149885  
C411     C      0.610870000000     0.479860000000     0.593740000000    -0.0117519  
C412     C      0.570400000000     0.976390000000     0.550850000000    -0.00573129 
C413     C      0.866870000000     0.446760000000     0.573030000000    -0.0134428  
C414     C      0.824970000000     0.444660000000     0.614370000000    -0.0143562  
C415     C      0.847280000000     0.970230000000     0.554210000000    -0.013366   
C416     C      0.806220000000     0.969390000000     0.596540000000    -0.0123291  
C417     C      0.933340000000     0.091210000000     0.808660000000    -0.0106781  
C418     C      0.439500000000     0.049780000000     0.849890000000    -0.0123027  
C419     C      0.956780000000     0.112420000000     0.825470000000    -0.0146565  
C420     C      0.461410000000     0.071590000000     0.868420000000    -0.0134951  
C421     C      0.457000000000     0.307930000000     0.826470000000    -0.0141237  
C422     C      0.951690000000     0.348750000000     0.868820000000    -0.01313    
C423     C      0.481340000000     0.328270000000     0.809950000000    -0.0105296  
C424     C      0.974980000000     0.369730000000     0.850920000000    -0.0124664  
C425     C      0.954140000000     0.325510000000     0.614760000000    -0.0138885  
C426     C      0.452100000000     0.367880000000     0.573500000000    -0.0128938  
C427     C      0.975500000000     0.306340000000     0.593330000000    -0.0079369  
C428     C      0.472320000000     0.347750000000     0.551440000000    -0.012766   
C429     C      0.448180000000     0.049950000000     0.571480000000    -0.0135148  
C430     C      0.946490000000     0.091990000000     0.612460000000    -0.0121657  
C431     C      0.470150000000     0.070540000000     0.551380000000    -0.0139063  
C432     C      0.969550000000     0.111580000000     0.593270000000    -0.0136887  
C433     C      0.451440000000     0.536540000000     0.128700000000     0.37535    
C434     C      0.536290000000     0.468030000000     0.293060000000     0.37595    
C435     C      0.535520000000     0.462790000000     0.129230000000     0.37617    
C436     C      0.445300000000     0.536490000000     0.292920000000     0.381402   
C437     C      0.882080000000     0.949480000000     0.294220000000     0.378567   
C438     C      0.958830000000     0.881760000000     0.129830000000     0.38022    
C439     C      0.970560000000     0.883170000000     0.293810000000     0.381247   
C440     C      0.880440000000     0.950510000000     0.129980000000     0.377108   
C441     C      0.536910000000     0.628190000000     0.953300000000     0.380149   
C442     C      0.465450000000     0.791260000000     0.037810000000     0.378828   
C443     C      0.464580000000     0.627520000000     0.037560000000     0.374794   
C444     C      0.536950000000     0.791810000000     0.954280000000     0.379209   
C445     C      0.956810000000     0.792000000000     0.382410000000     0.378462   
C446     C      0.882920000000     0.627920000000     0.457410000000     0.378469   
C447     C      0.882560000000     0.791510000000     0.462180000000     0.37811    
C448     C      0.957250000000     0.628240000000     0.381650000000     0.37666    
C449     C      0.791270000000     0.537110000000     0.964350000000     0.378702   
C450     C      0.626790000000     0.468460000000     0.038760000000     0.378412   
C451     C      0.790560000000     0.466000000000     0.040620000000     0.37888    
C452     C      0.627890000000     0.537360000000     0.960490000000     0.380166   
C453     C      0.627890000000     0.957870000000     0.383820000000     0.376088   
C454     C      0.791090000000     0.883020000000     0.468450000000     0.377745   
C455     C      0.627590000000     0.882840000000     0.467180000000     0.378951   
C456     C      0.791500000000     0.959380000000     0.384890000000     0.376913   
C457     C      0.847770000000     0.870070000000     0.474330000000    -0.0127596  
C458     C      0.807030000000     0.827500000000     0.979060000000    -0.0130481  
C459     C      0.868570000000     0.847770000000     0.455070000000    -0.0129523  
C460     C      0.826030000000     0.806600000000     0.957080000000    -0.012507   
C461     C      0.806700000000     0.592890000000     0.971070000000    -0.0131548  
C462     C      0.847760000000     0.550650000000     0.971160000000    -0.0132575  
C463     C      0.827260000000     0.612770000000     0.449480000000    -0.013644   
C464     C      0.869110000000     0.571380000000     0.450920000000    -0.0136141  
C465     C      0.611830000000     0.826910000000     0.471900000000    -0.0124215  
C466     C      0.570640000000     0.868940000000     0.972290000000    -0.013455   
C467     C      0.593020000000     0.807960000000     0.447970000000    -0.0124351  
C468     C      0.550550000000     0.848700000000     0.950050000000    -0.013464   
C469     C      0.550320000000     0.571420000000     0.446200000000    -0.0124055  
C470     C      0.592310000000     0.612300000000     0.441490000000    -0.0116341  
C471     C      0.571710000000     0.551200000000     0.967920000000    -0.0125999  
C472     C      0.612960000000     0.593350000000     0.964900000000    -0.0126948  
C473     C      0.806950000000     0.460260000000     0.329280000000    -0.0131151  
C474     C      0.848070000000     0.462340000000     0.371810000000    -0.0130768  
C475     C      0.827030000000     0.939560000000     0.310290000000    -0.0121807  
C476     C      0.869200000000     0.942640000000     0.351160000000    -0.0124444  
C477     C      0.612180000000     0.953730000000     0.327670000000    -0.0148061  
C478     C      0.571280000000     0.452820000000     0.370390000000    -0.0130029  
C479     C      0.591600000000     0.975970000000     0.308500000000    -0.00657878 
C480     C      0.550040000000     0.473700000000     0.349910000000    -0.0128523  
C481     C      0.590960000000     0.959150000000     0.114440000000    -0.0155622  
C482     C      0.549290000000     0.456950000000     0.072570000000    -0.0134694  
C483     C      0.610870000000     0.979800000000     0.093190000000    -0.00505592 
C484     C      0.570250000000     0.477020000000     0.051120000000    -0.0124536  
C485     C      0.866630000000     0.946370000000     0.073000000000    -0.0134527  
C486     C      0.824610000000     0.944500000000     0.114240000000    -0.0141565  
C487     C      0.847260000000     0.470760000000     0.054410000000    -0.0130202  
C488     C      0.806290000000     0.469990000000     0.096810000000    -0.0123394  
C489     C      0.933220000000     0.591160000000     0.308650000000    -0.0106875  
C490     C      0.439570000000     0.549760000000     0.349840000000    -0.0123008  
C491     C      0.956540000000     0.612500000000     0.325460000000    -0.014667   
C492     C      0.461380000000     0.571670000000     0.368360000000    -0.0134925  
C493     C      0.456390000000     0.807990000000     0.326550000000    -0.014042   
C494     C      0.951470000000     0.848780000000     0.368950000000    -0.0131629  
C495     C      0.480720000000     0.828260000000     0.309910000000    -0.0105951  
C496     C      0.974680000000     0.869740000000     0.350910000000    -0.0124823  
C497     C      0.953330000000     0.825790000000     0.114710000000    -0.0127549  
C498     C      0.451670000000     0.868140000000     0.073480000000    -0.012848   
C499     C      0.974350000000     0.806400000000     0.093170000000    -0.0124005  
C500     C      0.471580000000     0.847860000000     0.051280000000    -0.0129608  
C501     C      0.448090000000     0.549940000000     0.071500000000    -0.0135623  
C502     C      0.946070000000     0.591970000000     0.112510000000    -0.0118554  
C503     C      0.469830000000     0.570700000000     0.051340000000    -0.0137455  
C504     C      0.968880000000     0.611800000000     0.093270000000    -0.0143123  
C505     C      0.451870000000     0.536470000000     0.628630000000     0.37509    
C506     C      0.536390000000     0.467760000000     0.793050000000     0.37573    
C507     C      0.535630000000     0.462570000000     0.629220000000     0.37612    
C508     C      0.445570000000     0.536470000000     0.792870000000     0.381527   
C509     C      0.882180000000     0.949360000000     0.794170000000     0.37816    
C510     C      0.959290000000     0.881600000000     0.629830000000     0.379986   
C511     C      0.970820000000     0.883150000000     0.793780000000     0.381501   
C512     C      0.880570000000     0.950410000000     0.629920000000     0.37692    
C513     C      0.537340000000     0.628180000000     0.451990000000     0.379958   
C514     C      0.466500000000     0.791170000000     0.537890000000     0.378778   
C515     C      0.465580000000     0.627410000000     0.537540000000     0.374245   
C516     C      0.537290000000     0.791880000000     0.453450000000     0.378846   
C517     C      0.957000000000     0.791960000000     0.882270000000     0.378606   
C518     C      0.882480000000     0.627870000000     0.956880000000     0.378241   
C519     C      0.882040000000     0.791520000000     0.961090000000     0.378125   
C520     C      0.957470000000     0.628200000000     0.881610000000     0.376889   
C521     C      0.791410000000     0.537450000000     0.464730000000     0.379051   
C522     C      0.626860000000     0.468520000000     0.538800000000     0.378768   
C523     C      0.790620000000     0.465990000000     0.540610000000     0.378847   
C524     C      0.627980000000     0.537910000000     0.460740000000     0.379889   
C525     C      0.627870000000     0.957050000000     0.883820000000     0.376005   
C526     C      0.791060000000     0.882630000000     0.969090000000     0.377611   
C527     C      0.627480000000     0.882500000000     0.968030000000     0.379041   
C528     C      0.791470000000     0.958590000000     0.884930000000     0.376645   
C529     C      0.847810000000     0.869650000000     0.974740000000    -0.0129111  
C530     C      0.806940000000     0.828010000000     0.478910000000    -0.0116893  
C531     C      0.868070000000     0.847910000000     0.954250000000    -0.0130213  
C532     C      0.826590000000     0.806400000000     0.458240000000    -0.0124529  
C533     C      0.807000000000     0.593180000000     0.471580000000    -0.0131332  
C534     C      0.847930000000     0.550810000000     0.471710000000    -0.0134488  
C535     C      0.826860000000     0.612550000000     0.948940000000    -0.013703   
C536     C      0.868830000000     0.571290000000     0.950340000000    -0.0137019  
C537     C      0.611590000000     0.826660000000     0.973400000000    -0.0125651  
C538     C      0.570780000000     0.869080000000     0.471060000000    -0.0132658  
C539     C      0.592790000000     0.807720000000     0.949450000000    -0.0121952  
C540     C      0.550650000000     0.848810000000     0.448880000000    -0.0134496  
C541     C      0.549900000000     0.571490000000     0.947640000000    -0.0123663  
C542     C      0.591910000000     0.612390000000     0.943200000000    -0.0112136  
C543     C      0.571690000000     0.551830000000     0.467610000000    -0.0128147  
C544     C      0.612910000000     0.593980000000     0.464260000000    -0.0127354  
C545     C      0.806910000000     0.459530000000     0.829320000000    -0.0131088  
C546     C      0.848020000000     0.461770000000     0.871850000000    -0.0131857  
C547     C      0.827190000000     0.939100000000     0.810220000000    -0.0121058  
C548     C      0.869320000000     0.942330000000     0.851090000000    -0.0124239  
C549     C      0.612160000000     0.952880000000     0.827670000000    -0.013094   
C550     C      0.571250000000     0.452190000000     0.870360000000    -0.0128954  
C551     C      0.591750000000     0.975320000000     0.808530000000    -0.0130489  
C552     C      0.550160000000     0.473260000000     0.849920000000    -0.0130113  
C553     C      0.591070000000     0.958800000000     0.614420000000    -0.0155202  
C554     C      0.549400000000     0.456800000000     0.572560000000    -0.013424   
C555     C      0.610980000000     0.979550000000     0.593290000000    -0.00503122 
C556     C      0.570330000000     0.477010000000     0.551220000000    -0.0124323  
C557     C      0.866760000000     0.946310000000     0.572940000000    -0.01338    
C558     C      0.824760000000     0.944290000000     0.614180000000    -0.0141212  
C559     C      0.847340000000     0.470700000000     0.554400000000    -0.0132378  
C560     C      0.806370000000     0.469780000000     0.596810000000    -0.0123222  
C561     C      0.933750000000     0.591220000000     0.808540000000    -0.0107263  
C562     C      0.439830000000     0.549780000000     0.849790000000    -0.0123827  
C563     C      0.957130000000     0.612430000000     0.825420000000    -0.0145405  
C564     C      0.461680000000     0.571610000000     0.868380000000    -0.0134618  
C565     C      0.457040000000     0.807920000000     0.826420000000    -0.0140631  
C566     C      0.951650000000     0.848720000000     0.868770000000    -0.0130586  
C567     C      0.481340000000     0.828310000000     0.809900000000    -0.0105514  
C568     C      0.974910000000     0.869740000000     0.850890000000    -0.0125198  
C569     C      0.954400000000     0.825570000000     0.614710000000    -0.013849   
C570     C      0.452290000000     0.867940000000     0.573460000000    -0.0128222  
C571     C      0.975710000000     0.806400000000     0.593240000000    -0.00790875 
C572     C      0.472450000000     0.847800000000     0.551350000000    -0.0129056  
C573     C      0.448720000000     0.549900000000     0.571430000000    -0.0136382  
C574     C      0.947050000000     0.591940000000     0.612420000000    -0.0122182  
C575     C      0.470590000000     0.570550000000     0.551280000000    -0.0137049  
C576     C      0.970030000000     0.611570000000     0.593170000000    -0.0136152  
H1       H      0.001000000000     0.012850000000     0.255910000000     0.199072   
H2       H      0.010920000000     0.414560000000     0.164370000000     0.198317   
H3       H      0.416140000000     0.406580000000     0.256800000000     0.209287   
H4       H      0.404040000000     0.002850000000     0.164490000000     0.197305   
H5       H      0.066250000000     0.413950000000     0.208250000000     0.124794   
H6       H      0.027150000000     0.360030000000     0.204920000000     0.183754   
H7       H      0.411550000000     0.358360000000     0.199500000000     0.145905   
H8       H      0.355560000000     0.397690000000     0.231710000000     0.197439   
H9       H      0.351570000000     0.005650000000     0.208150000000     0.118913   
H10      H      0.389800000000     0.060870000000     0.206940000000     0.183087   
H11      H      0.002200000000     0.062330000000     0.193300000000     0.14228    
H12      H      0.058870000000     0.023230000000     0.228980000000     0.196415   
H13      H      0.358550000000     0.395720000000     0.192490000000     0.201059   
H14      H      0.418580000000     0.087460000000     0.210210000000     0.200347   
H15      H      0.056230000000     0.023610000000     0.189650000000     0.199913   
H16      H      0.999540000000     0.332590000000     0.210480000000     0.205981   
H17      H      0.009810000000     0.254210000000     0.005900000000     0.20828    
H18      H      0.412950000000     0.162140000000     0.010930000000     0.200823   
H19      H      0.409110000000     0.254360000000     0.414670000000     0.207101   
H20      H      0.006050000000     0.163680000000     0.407700000000     0.201001   
H21      H      0.406580000000     0.206370000000     0.063220000000     0.12515    
H22      H      0.357090000000     0.196970000000     0.023100000000     0.181853   
H23      H      0.361310000000     0.198950000000     0.408330000000     0.14366    
H24      H      0.402230000000     0.230780000000     0.355530000000     0.195196   
H25      H      0.011130000000     0.208490000000     0.354760000000     0.120539   
H26      H      0.065110000000     0.209170000000     0.397030000000     0.18369    
H27      H      0.080860000000     0.216200000000     0.990840000000     0.136946   
H28      H      0.022440000000     0.193270000000     0.056290000000     0.209974   
H29      H      0.400500000000     0.191540000000     0.357010000000     0.199557   
H30      H      0.089820000000     0.211200000000     0.427630000000     0.192003   
H31      H      0.007870000000     0.223950000000     0.076120000000     0.200153   
H32      H      0.333750000000     0.217890000000     0.999290000000     0.20035    
H33      H      0.165170000000     0.010710000000     0.007800000000     0.20335    
H34      H      0.255610000000     0.414060000000     0.014950000000     0.203362   
H35      H      0.164860000000     0.409780000000     0.416470000000     0.208799   
H36      H      0.256790000000     0.007610000000     0.411880000000     0.196484   
H37      H      0.212360000000     0.406860000000     0.065050000000     0.123562   
H38      H      0.209930000000     0.354670000000     0.025530000000     0.184085   
H39      H      0.205210000000     0.338340000000     0.432330000000     0.137137   
H40      H      0.190620000000     0.404520000000     0.355330000000     0.199606   
H41      H      0.213710000000     0.012350000000     0.357150000000     0.120022   
H42      H      0.219550000000     0.062420000000     0.398600000000     0.181301   
H43      H      0.221390000000     0.058910000000     0.014400000000     0.142955   
H44      H      0.196820000000     0.024150000000     0.058980000000     0.189575   
H45      H      0.229010000000     0.399920000000     0.362170000000     0.209522   
H46      H      0.203920000000     0.087420000000     0.424700000000     0.201079   
H47      H      0.219640000000     0.003680000000     0.083600000000     0.201612   
H48      H      0.208360000000     0.329910000000     0.994930000000     0.191171   
H49      H      0.313600000000     0.321660000000     0.004610000000     0.0371278  
H50      H      0.355660000000     0.367130000000     0.000530000000     0.0390268  
H51      H      0.393450000000     0.352810000000     0.461690000000     0.0443662  
H52      H      0.281720000000     0.321710000000     0.976980000000     0.0388013  
H53      H      0.320950000000     0.281690000000     0.963850000000     0.0413957  
H54      H      0.318870000000     0.308710000000     0.434240000000     0.0405742  
H55      H      0.352070000000     0.394510000000     0.467340000000     0.0443256  
H56      H      0.364950000000     0.353160000000     0.430590000000     0.039307   
H57      H      0.354560000000     0.054570000000     0.996840000000     0.0374212  
H58      H      0.311830000000     0.100240000000     0.996550000000     0.0374569  
H59      H      0.321830000000     0.138140000000     0.454600000000     0.0434569  
H60      H      0.352220000000     0.025720000000     0.966130000000     0.0428403  
H61      H      0.393570000000     0.066770000000     0.957160000000     0.0433936  
H62      H      0.365480000000     0.064280000000     0.426680000000     0.0382544  
H63      H      0.281830000000     0.098760000000     0.467820000000     0.042855   
H64      H      0.320220000000     0.107400000000     0.425740000000     0.0377702  
H65      H      0.062200000000     0.364910000000     0.997270000000     0.0380929  
H66      H      0.104500000000     0.318930000000     0.998220000000     0.0368133  
H67      H      0.098280000000     0.282720000000     0.452260000000     0.0355338  
H68      H      0.066220000000     0.394260000000     0.967260000000     0.0438656  
H69      H      0.025230000000     0.353120000000     0.955670000000     0.0432739  
H70      H      0.054870000000     0.356910000000     0.424820000000     0.0382872  
H71      H      0.136910000000     0.321710000000     0.469480000000     0.035577   
H72      H      0.100990000000     0.314650000000     0.424740000000     0.0373191  
H73      H      0.098530000000     0.105220000000     0.417750000000     0.0359677  
H74      H      0.053460000000     0.063170000000     0.421750000000     0.036917   
H75      H      0.066750000000     0.026040000000     0.962750000000     0.043026   
H76      H      0.097930000000     0.137770000000     0.444630000000     0.0387691  
H77      H      0.137670000000     0.098480000000     0.959800000000     0.0420119  
H78      H      0.108710000000     0.101170000000     0.990400000000     0.040195   
H79      H      0.025370000000     0.067220000000     0.955690000000     0.0427968  
H80      H      0.065570000000     0.055120000000     0.993320000000     0.0378731  
H81      H      0.355440000000     0.988800000000     0.367230000000     0.0404598  
H82      H      0.312550000000     0.986960000000     0.320380000000     0.0434327  
H83      H      0.321970000000     0.441180000000     0.284900000000     0.0443446  
H84      H      0.352610000000     0.958680000000     0.396640000000     0.0449108  
H85      H      0.394500000000     0.449530000000     0.355510000000     0.0443415  
H86      H      0.367450000000     0.417370000000     0.358650000000     0.0376636  
H87      H      0.282230000000     0.453740000000     0.324180000000     0.0464293  
H88      H      0.322090000000     0.413760000000     0.317000000000     0.0364359  
H89      H      0.064480000000     0.927380000000     0.366230000000     0.0385544  
H90      H      0.107480000000     0.428920000000     0.320330000000     0.039625   
H91      H      0.097360000000     0.471810000000     0.283190000000     0.0465674  
H92      H      0.066790000000     0.957760000000     0.395400000000     0.0448671  
H93      H      0.025080000000     0.966600000000     0.354470000000     0.0439874  
H94      H      0.053090000000     0.997930000000     0.357490000000     0.0396746  
H95      H      0.137370000000     0.458540000000     0.322690000000     0.0465012  
H96      H      0.098650000000     0.500150000000     0.314430000000     0.0390108  
H97      H      0.051710000000     0.931730000000     0.066790000000     0.0390883  
H98      H      0.099180000000     0.433110000000     0.109530000000     0.0417606  
H99      H      0.135940000000     0.476500000000     0.099630000000     0.0453187  
H100     H      0.024130000000     0.963580000000     0.067800000000     0.0444439  
H101     H      0.065850000000     0.968760000000     0.026090000000     0.0441648  
H102     H      0.063590000000     0.001330000000     0.052830000000     0.0325141  
H103     H      0.096560000000     0.463010000000     0.139210000000     0.0467376  
H104     H      0.104210000000     0.504250000000     0.099660000000     0.0366179  
H105     H      0.316530000000     0.421250000000     0.106420000000     0.0380025  
H106     H      0.361340000000     0.422970000000     0.063810000000     0.0383956  
H107     H      0.351580000000     0.467230000000     0.028880000000     0.0448142  
H108     H      0.319460000000     0.946360000000     0.139790000000     0.045288   
H109     H      0.280770000000     0.966210000000     0.101740000000     0.0426646  
H110     H      0.313160000000     0.992860000000     0.105860000000     0.0390259  
H111     H      0.392100000000     0.451330000000     0.068690000000     0.0443681  
H112     H      0.355680000000     0.994220000000     0.060450000000     0.0399656  
H113     H      0.415050000000     0.052770000000     0.359310000000     0.0380992  
H114     H      0.407860000000     0.096560000000     0.317490000000     0.0371096  
H115     H      0.448090000000     0.137320000000     0.321220000000     0.044202   
H116     H      0.946970000000     0.025080000000     0.354260000000     0.0434589  
H117     H      0.959270000000     0.067210000000     0.393680000000     0.0449715  
H118     H      0.986820000000     0.065140000000     0.361850000000     0.0388919  
H119     H      0.432630000000     0.096500000000     0.283290000000     0.0420412  
H120     H      0.979830000000     0.108460000000     0.315200000000     0.0419851  
H121     H      0.427560000000     0.355880000000     0.363060000000     0.037589   
H122     H      0.932500000000     0.313930000000     0.316090000000     0.0395357  
H123     H      0.980240000000     0.322640000000     0.284310000000     0.0431343  
H124     H      0.455090000000     0.353030000000     0.394870000000     0.0446006  
H125     H      0.468310000000     0.394900000000     0.355150000000     0.0444025  
H126     H      0.498660000000     0.366200000000     0.360640000000     0.039963   
H127     H      0.960640000000     0.282940000000     0.321180000000     0.0473613  
H128     H      0.004050000000     0.321020000000     0.319130000000     0.0361497  
H129     H      0.426240000000     0.364560000000     0.067950000000     0.0405594  
H130     H      0.429880000000     0.318180000000     0.111220000000     0.0416176  
H131     H      0.472160000000     0.281290000000     0.098850000000     0.0411858  
H132     H      0.955310000000     0.393080000000     0.068640000000     0.0450794  
H133     H      0.962800000000     0.352320000000     0.026740000000     0.0452607  
H134     H      0.995100000000     0.355260000000     0.053730000000     0.0389472  
H135     H      0.460990000000     0.320730000000     0.139620000000     0.0416051  
H136     H      0.999130000000     0.311460000000     0.098750000000     0.0357491  
H137     H      0.421170000000     0.099840000000     0.105620000000     0.0363468  
H138     H      0.923200000000     0.052790000000     0.063540000000     0.0360677  
H139     H      0.963520000000     0.066210000000     0.025880000000     0.044282   
H140     H      0.448270000000     0.097810000000     0.137940000000     0.0401284  
H141     H      0.464850000000     0.136970000000     0.099070000000     0.0454904  
H142     H      0.492830000000     0.105610000000     0.102100000000     0.0395418  
H143     H      0.954330000000     0.024740000000     0.067370000000     0.0434878  
H144     H      0.993760000000     0.063650000000     0.055130000000     0.0409438  
H145     H      0.001140000000     0.012760000000     0.755870000000     0.198957   
H146     H      0.011030000000     0.414440000000     0.664400000000     0.198521   
H147     H      0.416190000000     0.406550000000     0.756790000000     0.209287   
H148     H      0.404210000000     0.002820000000     0.664410000000     0.196893   
H149     H      0.066360000000     0.413840000000     0.708370000000     0.124815   
H150     H      0.027100000000     0.359700000000     0.705170000000     0.183882   
H151     H      0.411660000000     0.358270000000     0.699180000000     0.146077   
H152     H      0.355450000000     0.397800000000     0.731630000000     0.197707   
H153     H      0.351720000000     0.005660000000     0.707930000000     0.11896    
H154     H      0.389940000000     0.060720000000     0.706740000000     0.183128   
H155     H      0.002510000000     0.062130000000     0.693410000000     0.142127   
H156     H      0.058940000000     0.023140000000     0.729000000000     0.196101   
H157     H      0.358680000000     0.395700000000     0.692430000000     0.201049   
H158     H      0.418660000000     0.087350000000     0.710150000000     0.200412   
H159     H      0.056420000000     0.023470000000     0.689660000000     0.199753   
H160     H      0.999330000000     0.332370000000     0.710460000000     0.2061     
H161     H      0.010720000000     0.254240000000     0.505430000000     0.201729   
H162     H      0.413980000000     0.162090000000     0.511410000000     0.199633   
H163     H      0.409110000000     0.254320000000     0.914040000000     0.207243   
H164     H      0.006090000000     0.163590000000     0.908170000000     0.200846   
H165     H      0.408590000000     0.205280000000     0.564270000000     0.1246     
H166     H      0.358540000000     0.197350000000     0.524470000000     0.181983   
H167     H      0.361370000000     0.198770000000     0.907270000000     0.143773   
H168     H      0.402840000000     0.230710000000     0.854830000000     0.19507    
H169     H      0.011680000000     0.208350000000     0.855210000000     0.120384   
H170     H      0.064880000000     0.209260000000     0.897730000000     0.183407   
H171     H      0.081230000000     0.217030000000     0.490290000000     0.137118   
H172     H      0.023640000000     0.224650000000     0.556760000000     0.198809   
H173     H      0.401110000000     0.191470000000     0.856310000000     0.199583   
H174     H      0.089480000000     0.210740000000     0.928450000000     0.191682   
H175     H      0.008820000000     0.193780000000     0.576040000000     0.203721   
H176     H      0.334460000000     0.217120000000     0.500420000000     0.201415   
H177     H      0.165250000000     0.010920000000     0.508040000000     0.20274    
H178     H      0.255680000000     0.414210000000     0.514690000000     0.20312    
H179     H      0.164790000000     0.409080000000     0.916750000000     0.208511   
H180     H      0.256710000000     0.006920000000     0.911660000000     0.196512   
H181     H      0.212160000000     0.406710000000     0.564700000000     0.123355   
H182     H      0.212310000000     0.354870000000     0.524950000000     0.18377    
H183     H      0.202320000000     0.338390000000     0.932340000000     0.137057   
H184     H      0.190560000000     0.403330000000     0.855880000000     0.199448   
H185     H      0.213740000000     0.011220000000     0.856780000000     0.120168   
H186     H      0.219310000000     0.061500000000     0.897950000000     0.181499   
H187     H      0.221700000000     0.059040000000     0.514920000000     0.142091   
H188     H      0.197010000000     0.024070000000     0.559290000000     0.18952    
H189     H      0.229030000000     0.398990000000     0.862430000000     0.209557   
H190     H      0.203760000000     0.086700000000     0.923900000000     0.201125   
H191     H      0.219650000000     0.003360000000     0.583890000000     0.201391   
H192     H      0.206090000000     0.330430000000     0.494690000000     0.191845   
H193     H      0.312060000000     0.323040000000     0.505120000000     0.0355281  
H194     H      0.355040000000     0.368450000000     0.500420000000     0.0379984  
H195     H      0.393120000000     0.352780000000     0.960260000000     0.0441099  
H196     H      0.281830000000     0.322090000000     0.475750000000     0.038914   
H197     H      0.321590000000     0.281870000000     0.466750000000     0.0414628  
H198     H      0.317770000000     0.310730000000     0.933360000000     0.0410317  
H199     H      0.352010000000     0.394350000000     0.968480000000     0.044466   
H200     H      0.363760000000     0.354100000000     0.930010000000     0.0392725  
H201     H      0.354700000000     0.054670000000     0.497420000000     0.0376862  
H202     H      0.312130000000     0.100430000000     0.497140000000     0.0377271  
H203     H      0.321350000000     0.137920000000     0.953950000000     0.0433497  
H204     H      0.352340000000     0.025840000000     0.466680000000     0.0430691  
H205     H      0.393830000000     0.066780000000     0.457850000000     0.0434446  
H206     H      0.365160000000     0.064160000000     0.926080000000     0.038192   
H207     H      0.281490000000     0.098420000000     0.967290000000     0.0428792  
H208     H      0.319810000000     0.107120000000     0.925140000000     0.0378141  
H209     H      0.062490000000     0.365620000000     0.496230000000     0.0381381  
H210     H      0.104830000000     0.319070000000     0.496770000000     0.0365393  
H211     H      0.097880000000     0.282550000000     0.954330000000     0.0357365  
H212     H      0.066350000000     0.394270000000     0.465550000000     0.043903   
H213     H      0.025340000000     0.353140000000     0.454650000000     0.0434829  
H214     H      0.054910000000     0.356740000000     0.925970000000     0.0383587  
H215     H      0.136670000000     0.321400000000     0.971020000000     0.0357367  
H216     H      0.100830000000     0.313660000000     0.926020000000     0.0367431  
H217     H      0.097570000000     0.106850000000     0.919060000000     0.0354989  
H218     H      0.051670000000     0.064010000000     0.922860000000     0.0366271  
H219     H      0.066860000000     0.026480000000     0.463200000000     0.0431769  
H220     H      0.097610000000     0.137700000000     0.947830000000     0.038381   
H221     H      0.137760000000     0.099020000000     0.459520000000     0.042088   
H222     H      0.108020000000     0.102510000000     0.489270000000     0.0413417  
H223     H      0.025460000000     0.067170000000     0.453060000000     0.0429994  
H224     H      0.065040000000     0.056640000000     0.492670000000     0.0387285  
H225     H      0.355210000000     0.988320000000     0.867450000000     0.0404652  
H226     H      0.312260000000     0.986360000000     0.820520000000     0.0433716  
H227     H      0.322080000000     0.440900000000     0.784850000000     0.0442648  
H228     H      0.352590000000     0.957990000000     0.896660000000     0.0448394  
H229     H      0.394550000000     0.449460000000     0.855480000000     0.0443327  
H230     H      0.367770000000     0.417070000000     0.858480000000     0.0376245  
H231     H      0.282250000000     0.452870000000     0.824210000000     0.0464134  
H232     H      0.322420000000     0.413290000000     0.816790000000     0.0363807  
H233     H      0.064290000000     0.926850000000     0.866130000000     0.038531   
H234     H      0.107270000000     0.428220000000     0.820270000000     0.0396057  
H235     H      0.097480000000     0.471260000000     0.783210000000     0.0466852  
H236     H      0.066760000000     0.957130000000     0.895390000000     0.0447919  
H237     H      0.025140000000     0.966350000000     0.854450000000     0.0440466  
H238     H      0.053350000000     0.997490000000     0.857560000000     0.0395192  
H239     H      0.137380000000     0.457610000000     0.822680000000     0.0465873  
H240     H      0.098950000000     0.499530000000     0.814510000000     0.0391319  
H241     H      0.051900000000     0.931610000000     0.566680000000     0.0389621  
H242     H      0.099310000000     0.432880000000     0.609380000000     0.0417513  
H243     H      0.136040000000     0.476340000000     0.599690000000     0.0453335  
H244     H      0.024250000000     0.963400000000     0.567810000000     0.044389   
H245     H      0.065930000000     0.968880000000     0.526130000000     0.04394    
H246     H      0.063650000000     0.001310000000     0.553050000000     0.0325036  
H247     H      0.096680000000     0.462610000000     0.639220000000     0.0467967  
H248     H      0.104290000000     0.504060000000     0.599880000000     0.03668    
H249     H      0.316680000000     0.421130000000     0.606350000000     0.0379407  
H250     H      0.361470000000     0.422960000000     0.563740000000     0.0382705  
H251     H      0.351650000000     0.467230000000     0.528860000000     0.0446034  
H252     H      0.319590000000     0.946170000000     0.639750000000     0.0452338  
H253     H      0.280860000000     0.965990000000     0.601720000000     0.0426474  
H254     H      0.313190000000     0.992690000000     0.605870000000     0.0390442  
H255     H      0.392200000000     0.451350000000     0.568650000000     0.0442751  
H256     H      0.355730000000     0.994180000000     0.560420000000     0.0398299  
H257     H      0.415290000000     0.052870000000     0.859200000000     0.038139   
H258     H      0.408440000000     0.096750000000     0.817320000000     0.0371723  
H259     H      0.448920000000     0.137280000000     0.821130000000     0.0441911  
H260     H      0.947100000000     0.025080000000     0.854200000000     0.0434281  
H261     H      0.959420000000     0.067180000000     0.893670000000     0.0449069  
H262     H      0.987070000000     0.065000000000     0.861930000000     0.0387954  
H263     H      0.433310000000     0.096550000000     0.783210000000     0.042088   
H264     H      0.980460000000     0.108230000000     0.815280000000     0.0419294  
H265     H      0.427800000000     0.355730000000     0.862760000000     0.0376287  
H266     H      0.933140000000     0.313750000000     0.815790000000     0.0395986  
H267     H      0.981030000000     0.322700000000     0.784310000000     0.0430741  
H268     H      0.455160000000     0.352980000000     0.894730000000     0.0445791  
H269     H      0.468480000000     0.394880000000     0.855110000000     0.0443935  
H270     H      0.498880000000     0.366250000000     0.860710000000     0.0399263  
H271     H      0.961410000000     0.282910000000     0.821070000000     0.047323   
H272     H      0.004630000000     0.321190000000     0.819280000000     0.0360815  
H273     H      0.426900000000     0.364170000000     0.567800000000     0.0406005  
H274     H      0.430680000000     0.317820000000     0.611100000000     0.0416441  
H275     H      0.473300000000     0.281240000000     0.598930000000     0.0415315  
H276     H      0.955890000000     0.392870000000     0.568630000000     0.0450776  
H277     H      0.964020000000     0.352210000000     0.526770000000     0.0450366  
H278     H      0.996130000000     0.355420000000     0.553960000000     0.0387979  
H279     H      0.461640000000     0.320600000000     0.639640000000     0.0415147  
H280     H      0.000420000000     0.311780000000     0.598890000000     0.0310763  
H281     H      0.422120000000     0.099990000000     0.605560000000     0.0362247  
H282     H      0.923890000000     0.052890000000     0.563430000000     0.0359319  
H283     H      0.964320000000     0.066040000000     0.525780000000     0.044076   
H284     H      0.449190000000     0.097750000000     0.637890000000     0.0401634  
H285     H      0.466090000000     0.136810000000     0.599050000000     0.0454562  
H286     H      0.493820000000     0.105230000000     0.602040000000     0.0393546  
H287     H      0.954830000000     0.024630000000     0.567280000000     0.0434179  
H288     H      0.994530000000     0.063260000000     0.555040000000     0.0409508  
H289     H      0.001600000000     0.512680000000     0.255830000000     0.204198   
H290     H      0.010760000000     0.914890000000     0.164360000000     0.198259   
H291     H      0.415920000000     0.906450000000     0.256780000000     0.20905    
H292     H      0.404550000000     0.502990000000     0.164480000000     0.202504   
H293     H      0.065990000000     0.914410000000     0.208130000000     0.124572   
H294     H      0.027140000000     0.860310000000     0.204950000000     0.183657   
H295     H      0.411590000000     0.858210000000     0.199320000000     0.146049   
H296     H      0.355590000000     0.897250000000     0.231780000000     0.197301   
H297     H      0.352150000000     0.506020000000     0.208020000000     0.123881   
H298     H      0.390640000000     0.561200000000     0.206860000000     0.183887   
H299     H      0.002940000000     0.562150000000     0.193180000000     0.142922   
H300     H      0.059470000000     0.522900000000     0.228660000000     0.197182   
H301     H      0.358350000000     0.895400000000     0.192520000000     0.200963   
H302     H      0.419570000000     0.587630000000     0.210080000000     0.200581   
H303     H      0.056910000000     0.523070000000     0.189320000000     0.200722   
H304     H      0.999620000000     0.832780000000     0.210490000000     0.205956   
H305     H      0.009970000000     0.754230000000     0.005790000000     0.208332   
H306     H      0.413120000000     0.662130000000     0.010940000000     0.200618   
H307     H      0.409170000000     0.754330000000     0.414650000000     0.206847   
H308     H      0.006130000000     0.663690000000     0.407610000000     0.201103   
H309     H      0.406730000000     0.706570000000     0.063160000000     0.125211   
H310     H      0.357220000000     0.696630000000     0.023060000000     0.181998   
H311     H      0.361310000000     0.699230000000     0.408380000000     0.143532   
H312     H      0.402200000000     0.730720000000     0.355540000000     0.19479    
H313     H      0.011130000000     0.708500000000     0.354640000000     0.120505   
H314     H      0.065280000000     0.709320000000     0.396980000000     0.183826   
H315     H      0.080870000000     0.716540000000     0.990820000000     0.137791   
H316     H      0.022660000000     0.693410000000     0.056200000000     0.210075   
H317     H      0.400470000000     0.691480000000     0.357090000000     0.199559   
H318     H      0.089960000000     0.710990000000     0.427620000000     0.192204   
H319     H      0.007940000000     0.723930000000     0.076160000000     0.200496   
H320     H      0.334120000000     0.718280000000     0.999680000000     0.200408   
H321     H      0.165260000000     0.511050000000     0.007770000000     0.208328   
H322     H      0.255680000000     0.913810000000     0.014250000000     0.203626   
H323     H      0.164950000000     0.910130000000     0.415710000000     0.20842    
H324     H      0.256920000000     0.507000000000     0.411810000000     0.201127   
H325     H      0.212250000000     0.906100000000     0.064200000000     0.123404   
H326     H      0.210090000000     0.854120000000     0.024230000000     0.184193   
H327     H      0.202710000000     0.839300000000     0.430310000000     0.137104   
H328     H      0.191080000000     0.904890000000     0.355000000000     0.19948    
H329     H      0.213900000000     0.511510000000     0.357240000000     0.124926   
H330     H      0.220010000000     0.561850000000     0.398210000000     0.182041   
H331     H      0.221410000000     0.559260000000     0.014000000000     0.143526   
H332     H      0.196900000000     0.524830000000     0.058860000000     0.18989    
H333     H      0.229730000000     0.901240000000     0.360950000000     0.209261   
H334     H      0.203750000000     0.586930000000     0.423840000000     0.201293   
H335     H      0.219860000000     0.504600000000     0.083560000000     0.202869   
H336     H      0.208590000000     0.829660000000     0.993380000000     0.191151   
H337     H      0.313550000000     0.821920000000     0.003970000000     0.0371231  
H338     H      0.355650000000     0.867440000000     0.999800000000     0.0377989  
H339     H      0.393600000000     0.852820000000     0.461280000000     0.0444486  
H340     H      0.281800000000     0.821830000000     0.976180000000     0.0388418  
H341     H      0.321080000000     0.781730000000     0.963460000000     0.0414416  
H342     H      0.319170000000     0.808590000000     0.433690000000     0.0405906  
H343     H      0.352180000000     0.894570000000     0.466400000000     0.04451    
H344     H      0.365280000000     0.852990000000     0.430010000000     0.0392246  
H345     H      0.354590000000     0.554320000000     0.996590000000     0.038221   
H346     H      0.311810000000     0.600060000000     0.996280000000     0.0377536  
H347     H      0.321970000000     0.638080000000     0.454460000000     0.0436362  
H348     H      0.352330000000     0.525610000000     0.965730000000     0.0440326  
H349     H      0.393730000000     0.566720000000     0.957120000000     0.0438467  
H350     H      0.365760000000     0.564310000000     0.426500000000     0.038844   
H351     H      0.281930000000     0.598640000000     0.467400000000     0.0431054  
H352     H      0.320480000000     0.607420000000     0.425510000000     0.0380221  
H353     H      0.062500000000     0.864760000000     0.996800000000     0.0382182  
H354     H      0.104860000000     0.818770000000     0.997380000000     0.0368313  
H355     H      0.098350000000     0.782690000000     0.451430000000     0.035496   
H356     H      0.066350000000     0.894190000000     0.966840000000     0.0441507  
H357     H      0.025310000000     0.853080000000     0.955350000000     0.0433506  
H358     H      0.054810000000     0.856910000000     0.424370000000     0.0382377  
H359     H      0.137080000000     0.821660000000     0.468460000000     0.035737   
H360     H      0.100880000000     0.814670000000     0.423960000000     0.0370312  
H361     H      0.098480000000     0.605120000000     0.417300000000     0.0361494  
H362     H      0.053500000000     0.563100000000     0.421600000000     0.037543   
H363     H      0.066850000000     0.526120000000     0.962740000000     0.0441976  
H364     H      0.098000000000     0.637770000000     0.444070000000     0.0387707  
H365     H      0.137800000000     0.598490000000     0.959130000000     0.04205    
H366     H      0.109010000000     0.601360000000     0.989870000000     0.040362   
H367     H      0.025470000000     0.567240000000     0.955560000000     0.0432323  
H368     H      0.065770000000     0.555350000000     0.993170000000     0.0383695  
H369     H      0.354350000000     0.487580000000     0.368910000000     0.0388224  
H370     H      0.310470000000     0.484920000000     0.321240000000     0.0421891  
H371     H      0.321370000000     0.942060000000     0.284870000000     0.0447514  
H372     H      0.352600000000     0.455890000000     0.396780000000     0.0441982  
H373     H      0.394150000000     0.948930000000     0.355460000000     0.0448932  
H374     H      0.365730000000     0.918040000000     0.359150000000     0.0378711  
H375     H      0.282050000000     0.958040000000     0.323580000000     0.0471485  
H376     H      0.320380000000     0.915430000000     0.317620000000     0.0367291  
H377     H      0.064470000000     0.427710000000     0.367230000000     0.0383229  
H378     H      0.107540000000     0.929030000000     0.319830000000     0.0398305  
H379     H      0.096950000000     0.971580000000     0.283140000000     0.0462084  
H380     H      0.066840000000     0.459010000000     0.395420000000     0.0441191  
H381     H      0.025230000000     0.467080000000     0.354430000000     0.0434147  
H382     H      0.053310000000     0.498350000000     0.357360000000     0.0378723  
H383     H      0.137200000000     0.958860000000     0.322370000000     0.0475649  
H384     H      0.098110000000     0.000410000000     0.313850000000     0.0333233  
H385     H      0.052740000000     0.431470000000     0.065920000000     0.0388566  
H386     H      0.098240000000     0.933610000000     0.111440000000     0.0415854  
H387     H      0.135860000000     0.975180000000     0.099280000000     0.0450711  
H388     H      0.024360000000     0.462570000000     0.067800000000     0.0430609  
H389     H      0.065900000000     0.470060000000     0.026240000000     0.0445672  
H390     H      0.063000000000     0.501700000000     0.054010000000     0.0372644  
H391     H      0.096070000000     0.965450000000     0.139090000000     0.047725   
H392     H      0.105690000000     0.004470000000     0.098400000000     0.0312526  
H393     H      0.316340000000     0.920890000000     0.106250000000     0.0380566  
H394     H      0.361210000000     0.922530000000     0.063760000000     0.0383868  
H395     H      0.351570000000     0.966710000000     0.028720000000     0.0456565  
H396     H      0.319730000000     0.446680000000     0.139990000000     0.0449976  
H397     H      0.280940000000     0.466570000000     0.102050000000     0.0419638  
H398     H      0.313340000000     0.493220000000     0.106130000000     0.0377643  
H399     H      0.391990000000     0.950860000000     0.068650000000     0.0449977  
H400     H      0.355740000000     0.494670000000     0.060660000000     0.0383593  
H401     H      0.415340000000     0.552750000000     0.359140000000     0.0389514  
H402     H      0.408230000000     0.596530000000     0.317300000000     0.0374683  
H403     H      0.448400000000     0.637330000000     0.321160000000     0.0442598  
H404     H      0.947320000000     0.525090000000     0.354180000000     0.044792   
H405     H      0.959480000000     0.567220000000     0.393630000000     0.0453966  
H406     H      0.987120000000     0.565180000000     0.361880000000     0.0394271  
H407     H      0.433100000000     0.596510000000     0.283170000000     0.0421163  
H408     H      0.980230000000     0.608500000000     0.315220000000     0.0421184  
H409     H      0.427500000000     0.855820000000     0.363000000000     0.0376366  
H410     H      0.932550000000     0.813870000000     0.316030000000     0.0395115  
H411     H      0.980270000000     0.822700000000     0.284260000000     0.0430759  
H412     H      0.455020000000     0.853010000000     0.394830000000     0.044666   
H413     H      0.468200000000     0.894900000000     0.355140000000     0.0446143  
H414     H      0.498590000000     0.866230000000     0.360600000000     0.0399831  
H415     H      0.960770000000     0.782940000000     0.321120000000     0.0473419  
H416     H      0.004080000000     0.821120000000     0.319090000000     0.0360851  
H417     H      0.426410000000     0.864660000000     0.067940000000     0.0406694  
H418     H      0.430120000000     0.818230000000     0.111240000000     0.0415965  
H419     H      0.472380000000     0.781350000000     0.098780000000     0.0411529  
H420     H      0.955530000000     0.893130000000     0.068590000000     0.0452463  
H421     H      0.962880000000     0.852350000000     0.026670000000     0.0453754  
H422     H      0.995250000000     0.855290000000     0.053590000000     0.0389602  
H423     H      0.461300000000     0.820800000000     0.139560000000     0.0415482  
H424     H      0.999370000000     0.811520000000     0.098610000000     0.0356936  
H425     H      0.421690000000     0.599750000000     0.105640000000     0.0365134  
H426     H      0.923740000000     0.552660000000     0.063540000000     0.0367979  
H427     H      0.963920000000     0.566210000000     0.025780000000     0.0447079  
H428     H      0.448870000000     0.597760000000     0.137890000000     0.0400899  
H429     H      0.465290000000     0.636950000000     0.098990000000     0.0455647  
H430     H      0.493330000000     0.605640000000     0.101940000000     0.0397295  
H431     H      0.954960000000     0.524710000000     0.067310000000     0.0446494  
H432     H      0.994250000000     0.563710000000     0.054950000000     0.0412965  
H433     H      0.001740000000     0.512600000000     0.755780000000     0.203851   
H434     H      0.010880000000     0.914760000000     0.664390000000     0.198602   
H435     H      0.415980000000     0.906420000000     0.756770000000     0.209241   
H436     H      0.404730000000     0.502970000000     0.664410000000     0.202419   
H437     H      0.066110000000     0.914290000000     0.708260000000     0.124686   
H438     H      0.027100000000     0.859970000000     0.705200000000     0.183786   
H439     H      0.411710000000     0.858120000000     0.699000000000     0.146111   
H440     H      0.355500000000     0.897340000000     0.731690000000     0.197492   
H441     H      0.352300000000     0.506050000000     0.707810000000     0.123867   
H442     H      0.390780000000     0.561060000000     0.706670000000     0.183939   
H443     H      0.003240000000     0.561960000000     0.693290000000     0.142787   
H444     H      0.059530000000     0.522820000000     0.728680000000     0.19693    
H445     H      0.358490000000     0.895360000000     0.692460000000     0.20093    
H446     H      0.419670000000     0.587530000000     0.710010000000     0.20054    
H447     H      0.057070000000     0.522940000000     0.689330000000     0.20057    
H448     H      0.999420000000     0.832550000000     0.710460000000     0.206089   
H449     H      0.010870000000     0.754260000000     0.505330000000     0.201532   
H450     H      0.414150000000     0.662080000000     0.511410000000     0.199859   
H451     H      0.409180000000     0.754280000000     0.914020000000     0.207299   
H452     H      0.006160000000     0.663600000000     0.908060000000     0.200827   
H453     H      0.408740000000     0.705480000000     0.564210000000     0.124672   
H454     H      0.358680000000     0.696980000000     0.524440000000     0.182172   
H455     H      0.361380000000     0.699030000000     0.907300000000     0.143508   
H456     H      0.402830000000     0.730640000000     0.854830000000     0.194949   
H457     H      0.011660000000     0.708360000000     0.855080000000     0.120449   
H458     H      0.065050000000     0.709270000000     0.897660000000     0.183649   
H459     H      0.081220000000     0.717420000000     0.490310000000     0.137002   
H460     H      0.023900000000     0.724490000000     0.556570000000     0.199001   
H461     H      0.401100000000     0.691400000000     0.856380000000     0.199589   
H462     H      0.089610000000     0.710650000000     0.928410000000     0.191973   
H463     H      0.008710000000     0.694090000000     0.576320000000     0.203417   
H464     H      0.334840000000     0.717550000000     0.500830000000     0.201475   
H465     H      0.165330000000     0.511280000000     0.508000000000     0.207618   
H466     H      0.255750000000     0.913940000000     0.513950000000     0.203604   
H467     H      0.164880000000     0.909400000000     0.916020000000     0.20822    
H468     H      0.256840000000     0.506320000000     0.911600000000     0.201386   
H469     H      0.212520000000     0.905990000000     0.563880000000     0.123167   
H470     H      0.210050000000     0.854350000000     0.523710000000     0.184359   
H471     H      0.202120000000     0.838850000000     0.930840000000     0.136858   
H472     H      0.191050000000     0.903720000000     0.855500000000     0.199547   
H473     H      0.213950000000     0.510420000000     0.856890000000     0.124937   
H474     H      0.219820000000     0.560960000000     0.897600000000     0.182007   
H475     H      0.221700000000     0.559410000000     0.514500000000     0.142627   
H476     H      0.197070000000     0.524790000000     0.559180000000     0.190048   
H477     H      0.229720000000     0.900220000000     0.861320000000     0.209398   
H478     H      0.203570000000     0.586210000000     0.923080000000     0.20123    
H479     H      0.219850000000     0.504330000000     0.583850000000     0.20286    
H480     H      0.208590000000     0.830000000000     0.492780000000     0.192203   
H481     H      0.311980000000     0.823300000000     0.504440000000     0.0355415  
H482     H      0.355020000000     0.868760000000     0.499690000000     0.0381045  
H483     H      0.393270000000     0.852790000000     0.959830000000     0.0443471  
H484     H      0.281930000000     0.822190000000     0.474900000000     0.038867   
H485     H      0.321710000000     0.781930000000     0.466360000000     0.0414362  
H486     H      0.318050000000     0.810610000000     0.932800000000     0.0409946  
H487     H      0.352120000000     0.894410000000     0.967540000000     0.0444212  
H488     H      0.364070000000     0.853930000000     0.929420000000     0.0392568  
H489     H      0.354720000000     0.554430000000     0.497160000000     0.0384633  
H490     H      0.312100000000     0.600260000000     0.496850000000     0.0380626  
H491     H      0.321490000000     0.637840000000     0.953820000000     0.0435521  
H492     H      0.352440000000     0.525750000000     0.466270000000     0.0442422  
H493     H      0.393970000000     0.566740000000     0.457790000000     0.0439479  
H494     H      0.365450000000     0.564190000000     0.925900000000     0.0387513  
H495     H      0.281610000000     0.598290000000     0.966890000000     0.04311    
H496     H      0.320070000000     0.607120000000     0.924920000000     0.0381055  
H497     H      0.062790000000     0.865500000000     0.495760000000     0.038266   
H498     H      0.105190000000     0.818950000000     0.495970000000     0.0366316  
H499     H      0.097960000000     0.782520000000     0.953430000000     0.0356989  
H500     H      0.066480000000     0.894200000000     0.465100000000     0.0441806  
H501     H      0.025430000000     0.853110000000     0.454330000000     0.0435591  
H502     H      0.054860000000     0.856750000000     0.925510000000     0.0383619  
H503     H      0.136850000000     0.821340000000     0.969970000000     0.0357052  
H504     H      0.100720000000     0.813700000000     0.925190000000     0.0366392  
H505     H      0.097520000000     0.606740000000     0.918570000000     0.035762   
H506     H      0.051720000000     0.563930000000     0.922700000000     0.0373187  
H507     H      0.066950000000     0.526560000000     0.463180000000     0.0443553  
H508     H      0.097690000000     0.637700000000     0.947210000000     0.0384467  
H509     H      0.137890000000     0.599020000000     0.458880000000     0.0421419  
H510     H      0.108320000000     0.602680000000     0.488780000000     0.0415134  
H511     H      0.025550000000     0.567190000000     0.452950000000     0.0434411  
H512     H      0.065230000000     0.556850000000     0.492530000000     0.0392345  
H513     H      0.354130000000     0.487110000000     0.869120000000     0.038783   
H514     H      0.310200000000     0.484330000000     0.821380000000     0.0421766  
H515     H      0.321490000000     0.941730000000     0.784820000000     0.0447089  
H516     H      0.352600000000     0.455240000000     0.896790000000     0.0440669  
H517     H      0.394210000000     0.948830000000     0.855430000000     0.0448549  
H518     H      0.366060000000     0.917690000000     0.858970000000     0.0377777  
H519     H      0.282040000000     0.957140000000     0.823620000000     0.0471074  
H520     H      0.320720000000     0.914910000000     0.817420000000     0.0366917  
H521     H      0.064290000000     0.427180000000     0.867120000000     0.03832    
H522     H      0.107330000000     0.928290000000     0.819800000000     0.0395192  
H523     H      0.097080000000     0.971000000000     0.783160000000     0.047415   
H524     H      0.066830000000     0.458380000000     0.895400000000     0.0441644  
H525     H      0.025290000000     0.466850000000     0.854410000000     0.043374   
H526     H      0.053570000000     0.497920000000     0.857430000000     0.0379232  
H527     H      0.137220000000     0.957890000000     0.822380000000     0.0469553  
H528     H      0.098430000000     0.999750000000     0.813940000000     0.0400379  
H529     H      0.052930000000     0.431380000000     0.565800000000     0.0387363  
H530     H      0.098360000000     0.933330000000     0.611280000000     0.0415637  
H531     H      0.135980000000     0.974970000000     0.599330000000     0.0450595  
H532     H      0.024470000000     0.462400000000     0.567800000000     0.0429943  
H533     H      0.065970000000     0.470200000000     0.526290000000     0.0443483  
H534     H      0.063050000000     0.501690000000     0.554240000000     0.0372895  
H535     H      0.096200000000     0.965000000000     0.639110000000     0.0477829  
H536     H      0.105790000000     0.004250000000     0.598610000000     0.031282   
H537     H      0.316510000000     0.920730000000     0.606170000000     0.0379473  
H538     H      0.361370000000     0.922490000000     0.563700000000     0.0382396  
H539     H      0.351640000000     0.966670000000     0.528690000000     0.0453735  
H540     H      0.319850000000     0.446510000000     0.639950000000     0.044988   
H541     H      0.281020000000     0.466400000000     0.602040000000     0.041947   
H542     H      0.313380000000     0.493100000000     0.606160000000     0.0377363  
H543     H      0.392100000000     0.950870000000     0.568600000000     0.0449113  
H544     H      0.355790000000     0.494650000000     0.560660000000     0.0382655  
H545     H      0.415590000000     0.552850000000     0.859030000000     0.0390018  
H546     H      0.408820000000     0.596740000000     0.817140000000     0.0375112  
H547     H      0.449260000000     0.637300000000     0.821060000000     0.0442986  
H548     H      0.947440000000     0.525090000000     0.854120000000     0.0447756  
H549     H      0.959620000000     0.567190000000     0.893620000000     0.0453501  
H550     H      0.987360000000     0.565040000000     0.861950000000     0.0394009  
H551     H      0.433790000000     0.596560000000     0.783090000000     0.0421712  
H552     H      0.980850000000     0.608260000000     0.815300000000     0.0420541  
H553     H      0.427750000000     0.855670000000     0.862710000000     0.037721   
H554     H      0.933170000000     0.813690000000     0.815720000000     0.0395592  
H555     H      0.981050000000     0.822760000000     0.784260000000     0.0430452  
H556     H      0.455100000000     0.852950000000     0.894680000000     0.0447142  
H557     H      0.468390000000     0.894880000000     0.855090000000     0.0445823  
H558     H      0.498820000000     0.866290000000     0.860680000000     0.0399084  
H559     H      0.961500000000     0.782910000000     0.821020000000     0.0473302  
H560     H      0.004650000000     0.821270000000     0.819230000000     0.0360415  
H561     H      0.427080000000     0.864280000000     0.567790000000     0.0406508  
H562     H      0.430940000000     0.817870000000     0.611130000000     0.0416483  
H563     H      0.473540000000     0.781300000000     0.598850000000     0.0415021  
H564     H      0.956110000000     0.892930000000     0.568590000000     0.0452051  
H565     H      0.964100000000     0.852240000000     0.526700000000     0.0451616  
H566     H      0.996270000000     0.855450000000     0.553820000000     0.0388281  
H567     H      0.461970000000     0.820670000000     0.639580000000     0.0414877  
H568     H      0.000640000000     0.811830000000     0.598750000000     0.0310309  
H569     H      0.422640000000     0.599900000000     0.605570000000     0.0364221  
H570     H      0.924410000000     0.552760000000     0.563430000000     0.036682   
H571     H      0.964710000000     0.566040000000     0.525680000000     0.0444957  
H572     H      0.449800000000     0.597700000000     0.637830000000     0.0401683  
H573     H      0.466530000000     0.636790000000     0.598970000000     0.0454761  
H574     H      0.494320000000     0.605260000000     0.601880000000     0.0394864  
H575     H      0.955450000000     0.524600000000     0.567220000000     0.0446073  
H576     H      0.995010000000     0.563320000000     0.554860000000     0.0413052  
H577     H      0.500810000000     0.013210000000     0.256000000000     0.203564   
H578     H      0.511070000000     0.415030000000     0.164430000000     0.202853   
H579     H      0.916030000000     0.406460000000     0.256810000000     0.208961   
H580     H      0.904170000000     0.002760000000     0.164460000000     0.197057   
H581     H      0.566400000000     0.414590000000     0.208310000000     0.125406   
H582     H      0.527410000000     0.360390000000     0.205250000000     0.182996   
H583     H      0.911130000000     0.358270000000     0.200080000000     0.145544   
H584     H      0.855390000000     0.397750000000     0.231710000000     0.197192   
H585     H      0.851710000000     0.005700000000     0.208050000000     0.118864   
H586     H      0.890050000000     0.060710000000     0.206840000000     0.183112   
H587     H      0.501800000000     0.062810000000     0.193260000000     0.14674    
H588     H      0.558660000000     0.023770000000     0.229110000000     0.196947   
H589     H      0.858330000000     0.395810000000     0.192470000000     0.200977   
H590     H      0.918860000000     0.087270000000     0.210130000000     0.200597   
H591     H      0.555950000000     0.024250000000     0.189790000000     0.200506   
H592     H      0.499810000000     0.332920000000     0.210720000000     0.201459   
H593     H      0.510120000000     0.254140000000     0.005990000000     0.212866   
H594     H      0.912700000000     0.162110000000     0.010340000000     0.201037   
H595     H      0.909220000000     0.254340000000     0.414140000000     0.207358   
H596     H      0.505780000000     0.163580000000     0.407790000000     0.204557   
H597     H      0.906240000000     0.206680000000     0.062820000000     0.124961   
H598     H      0.856870000000     0.197430000000     0.022460000000     0.181827   
H599     H      0.861510000000     0.198610000000     0.407540000000     0.143935   
H600     H      0.902430000000     0.230400000000     0.355060000000     0.195156   
H601     H      0.510670000000     0.208310000000     0.354830000000     0.12453    
H602     H      0.564820000000     0.207090000000     0.396840000000     0.183827   
H603     H      0.581100000000     0.216080000000     0.990580000000     0.137863   
H604     H      0.523210000000     0.194000000000     0.056100000000     0.210846   
H605     H      0.901130000000     0.191140000000     0.356310000000     0.199733   
H606     H      0.589520000000     0.213020000000     0.426930000000     0.191985   
H607     H      0.507470000000     0.223100000000     0.077360000000     0.201888   
H608     H      0.833230000000     0.217220000000     0.997990000000     0.200146   
H609     H      0.665180000000     0.010740000000     0.007720000000     0.203586   
H610     H      0.755620000000     0.414090000000     0.014960000000     0.203434   
H611     H      0.664830000000     0.409760000000     0.416470000000     0.208651   
H612     H      0.756770000000     0.007570000000     0.411820000000     0.196303   
H613     H      0.712460000000     0.406940000000     0.065070000000     0.12356    
H614     H      0.709970000000     0.354750000000     0.025630000000     0.184115   
H615     H      0.703020000000     0.338770000000     0.431940000000     0.137327   
H616     H      0.690530000000     0.404430000000     0.355410000000     0.199729   
H617     H      0.713690000000     0.012270000000     0.357080000000     0.119995   
H618     H      0.719290000000     0.062400000000     0.398500000000     0.181381   
H619     H      0.721610000000     0.058930000000     0.014240000000     0.143073   
H620     H      0.696980000000     0.024270000000     0.058860000000     0.1895     
H621     H      0.728950000000     0.399890000000     0.362120000000     0.209623   
H622     H      0.704050000000     0.087480000000     0.424760000000     0.200785   
H623     H      0.719560000000     0.003690000000     0.083620000000     0.201531   
H624     H      0.708360000000     0.329930000000     0.995080000000     0.191085   
H625     H      0.813670000000     0.321500000000     0.004400000000     0.0371298  
H626     H      0.855740000000     0.366930000000     0.000310000000     0.0390218  
H627     H      0.893370000000     0.352770000000     0.461230000000     0.0445303  
H628     H      0.781680000000     0.321670000000     0.976890000000     0.0387781  
H629     H      0.820840000000     0.281660000000     0.963470000000     0.0414065  
H630     H      0.818670000000     0.308850000000     0.433900000000     0.0406951  
H631     H      0.852050000000     0.394470000000     0.467250000000     0.0444273  
H632     H      0.864730000000     0.353250000000     0.430260000000     0.0393662  
H633     H      0.854630000000     0.054670000000     0.996400000000     0.037525   
H634     H      0.811880000000     0.100370000000     0.995970000000     0.0374954  
H635     H      0.821810000000     0.138070000000     0.453710000000     0.0433161  
H636     H      0.852230000000     0.025710000000     0.965790000000     0.0429545  
H637     H      0.893580000000     0.066720000000     0.956620000000     0.0435693  
H638     H      0.865440000000     0.064090000000     0.426180000000     0.0382915  
H639     H      0.781850000000     0.098770000000     0.467260000000     0.0427292  
H640     H      0.820200000000     0.107140000000     0.425070000000     0.037671   
H641     H      0.562190000000     0.364820000000     0.997280000000     0.0387063  
H642     H      0.604510000000     0.318880000000     0.998270000000     0.0370922  
H643     H      0.598380000000     0.282690000000     0.452280000000     0.0370725  
H644     H      0.566230000000     0.394190000000     0.967300000000     0.0442863  
H645     H      0.525290000000     0.353050000000     0.955600000000     0.0443862  
H646     H      0.554980000000     0.356860000000     0.424800000000     0.038805   
H647     H      0.636960000000     0.321690000000     0.469570000000     0.0360988  
H648     H      0.601100000000     0.314630000000     0.424780000000     0.0372559  
H649     H      0.598390000000     0.105060000000     0.417540000000     0.0360891  
H650     H      0.553350000000     0.063040000000     0.421750000000     0.0374865  
H651     H      0.566740000000     0.026000000000     0.962760000000     0.0433793  
H652     H      0.597860000000     0.137700000000     0.444320000000     0.0373182  
H653     H      0.637640000000     0.098440000000     0.959360000000     0.0420077  
H654     H      0.608790000000     0.101230000000     0.990050000000     0.0404906  
H655     H      0.525330000000     0.067150000000     0.955720000000     0.0438778  
H656     H      0.565640000000     0.055150000000     0.993270000000     0.0383861  
H657     H      0.855420000000     0.988750000000     0.367220000000     0.0405519  
H658     H      0.812540000000     0.986880000000     0.320350000000     0.043414   
H659     H      0.821980000000     0.441130000000     0.284880000000     0.0442777  
H660     H      0.852590000000     0.958630000000     0.396630000000     0.0450329  
H661     H      0.894500000000     0.449490000000     0.355510000000     0.0445241  
H662     H      0.867460000000     0.417330000000     0.358650000000     0.0376986  
H663     H      0.782230000000     0.453680000000     0.324150000000     0.046414   
H664     H      0.822100000000     0.413710000000     0.316980000000     0.0363912  
H665     H      0.564430000000     0.927490000000     0.366150000000     0.0390547  
H666     H      0.607420000000     0.429180000000     0.320220000000     0.0398332  
H667     H      0.597310000000     0.472230000000     0.283240000000     0.0466898  
H668     H      0.566760000000     0.957770000000     0.395410000000     0.0452266  
H669     H      0.525040000000     0.966760000000     0.354510000000     0.045051   
H670     H      0.553060000000     0.998070000000     0.357640000000     0.0402609  
H671     H      0.637320000000     0.458780000000     0.322680000000     0.0465904  
H672     H      0.598610000000     0.500450000000     0.314600000000     0.0391944  
H673     H      0.551640000000     0.932120000000     0.066990000000     0.0397223  
H674     H      0.599160000000     0.433690000000     0.109790000000     0.041956   
H675     H      0.635970000000     0.476930000000     0.099560000000     0.0453628  
H676     H      0.524140000000     0.964040000000     0.067840000000     0.0455037  
H677     H      0.565860000000     0.968890000000     0.026090000000     0.0445002  
H678     H      0.563670000000     0.001620000000     0.052640000000     0.0329617  
H679     H      0.596550000000     0.463810000000     0.139240000000     0.0467826  
H680     H      0.604300000000     0.504740000000     0.099430000000     0.0368527  
H681     H      0.816440000000     0.421420000000     0.106480000000     0.0380143  
H682     H      0.861270000000     0.422980000000     0.063850000000     0.0384597  
H683     H      0.851590000000     0.467190000000     0.028840000000     0.0448478  
H684     H      0.819410000000     0.946590000000     0.139800000000     0.0452675  
H685     H      0.780760000000     0.966440000000     0.101700000000     0.0426371  
H686     H      0.813210000000     0.993020000000     0.105770000000     0.0390015  
H687     H      0.892070000000     0.451290000000     0.068690000000     0.0445643  
H688     H      0.855730000000     0.994220000000     0.060370000000     0.039969   
H689     H      0.915980000000     0.053170000000     0.359430000000     0.0383177  
H690     H      0.908630000000     0.096730000000     0.316980000000     0.0368047  
H691     H      0.949510000000     0.137270000000     0.320760000000     0.0445107  
H692     H      0.446350000000     0.025030000000     0.354300000000     0.0430297  
H693     H      0.457190000000     0.067190000000     0.393890000000     0.0443093  
H694     H      0.485910000000     0.065430000000     0.363060000000     0.0375497  
H695     H      0.933660000000     0.096440000000     0.283160000000     0.0421988  
H696     H      0.478750000000     0.108850000000     0.315780000000     0.0412225  
H697     H      0.927320000000     0.356230000000     0.362540000000     0.0375676  
H698     H      0.432730000000     0.312800000000     0.316580000000     0.0389161  
H699     H      0.479780000000     0.322880000000     0.284360000000     0.0435113  
H700     H      0.954450000000     0.353030000000     0.394660000000     0.0450895  
H701     H      0.968670000000     0.394760000000     0.355130000000     0.0450506  
H702     H      0.998570000000     0.365630000000     0.360840000000     0.0413873  
H703     H      0.462090000000     0.283030000000     0.321610000000     0.0466665  
H704     H      0.504580000000     0.321690000000     0.318330000000     0.0402015  
H705     H      0.925080000000     0.363760000000     0.067840000000     0.0406071  
H706     H      0.928370000000     0.318090000000     0.111130000000     0.0413438  
H707     H      0.969960000000     0.281160000000     0.098750000000     0.0422668  
H708     H      0.457230000000     0.393080000000     0.068630000000     0.0444352  
H709     H      0.463910000000     0.352380000000     0.026720000000     0.0447598  
H710     H      0.496330000000     0.355420000000     0.053550000000     0.0375589  
H711     H      0.959430000000     0.320500000000     0.139600000000     0.0419883  
H712     H      0.500470000000     0.312470000000     0.098740000000     0.0349817  
H713     H      0.921010000000     0.099060000000     0.106810000000     0.0359886  
H714     H      0.423090000000     0.053590000000     0.063130000000     0.0360437  
H715     H      0.464340000000     0.066260000000     0.026140000000     0.0437605  
H716     H      0.949550000000     0.097480000000     0.137830000000     0.0404921  
H717     H      0.963390000000     0.136880000000     0.098610000000     0.0460575  
H718     H      0.992800000000     0.106900000000     0.101260000000     0.040289   
H719     H      0.453600000000     0.024940000000     0.067410000000     0.0429691  
H720     H      0.493970000000     0.063190000000     0.055970000000     0.0397263  
H721     H      0.500970000000     0.013100000000     0.755960000000     0.203546   
H722     H      0.511140000000     0.414880000000     0.664450000000     0.202884   
H723     H      0.916110000000     0.406420000000     0.756790000000     0.209194   
H724     H      0.904350000000     0.002690000000     0.664360000000     0.197089   
H725     H      0.566480000000     0.414420000000     0.708420000000     0.125369   
H726     H      0.527300000000     0.360050000000     0.705430000000     0.183391   
H727     H      0.911310000000     0.358150000000     0.699660000000     0.145849   
H728     H      0.855330000000     0.397800000000     0.731620000000     0.197366   
H729     H      0.851850000000     0.005670000000     0.707770000000     0.118949   
H730     H      0.890150000000     0.060510000000     0.706590000000     0.18302    
H731     H      0.502110000000     0.062620000000     0.693360000000     0.146757   
H732     H      0.558750000000     0.023640000000     0.729140000000     0.196716   
H733     H      0.858500000000     0.395730000000     0.692410000000     0.200944   
H734     H      0.918880000000     0.087130000000     0.710030000000     0.200471   
H735     H      0.556130000000     0.024080000000     0.689810000000     0.200447   
H736     H      0.499550000000     0.332690000000     0.710650000000     0.201481   
H737     H      0.511070000000     0.254150000000     0.505550000000     0.212335   
H738     H      0.913670000000     0.162050000000     0.510810000000     0.200084   
H739     H      0.909190000000     0.254300000000     0.913530000000     0.207343   
H740     H      0.505850000000     0.163490000000     0.908300000000     0.204789   
H741     H      0.907540000000     0.206810000000     0.563170000000     0.124838   
H742     H      0.857930000000     0.196970000000     0.523400000000     0.182003   
H743     H      0.861560000000     0.198390000000     0.906520000000     0.143908   
H744     H      0.902970000000     0.230340000000     0.854390000000     0.195278   
H745     H      0.511290000000     0.208190000000     0.855340000000     0.12437    
H746     H      0.564630000000     0.209210000000     0.897590000000     0.184131   
H747     H      0.582250000000     0.205920000000     0.489130000000     0.138804   
H748     H      0.524210000000     0.192720000000     0.555970000000     0.21012    
H749     H      0.901690000000     0.191080000000     0.855620000000     0.199691   
H750     H      0.589380000000     0.210620000000     0.928180000000     0.192152   
H751     H      0.510650000000     0.224180000000     0.575270000000     0.201507   
H752     H      0.834190000000     0.217230000000     0.499420000000     0.201453   
H753     H      0.665250000000     0.010950000000     0.507990000000     0.202458   
H754     H      0.755680000000     0.414220000000     0.514670000000     0.2033     
H755     H      0.664770000000     0.409010000000     0.916780000000     0.208417   
H756     H      0.756690000000     0.006830000000     0.911570000000     0.196442   
H757     H      0.712720000000     0.406820000000     0.564760000000     0.123241   
H758     H      0.710070000000     0.354980000000     0.525100000000     0.184227   
H759     H      0.702420000000     0.338290000000     0.932490000000     0.136953   
H760     H      0.690490000000     0.403180000000     0.855940000000     0.199384   
H761     H      0.713700000000     0.011070000000     0.856680000000     0.120129   
H762     H      0.719100000000     0.061430000000     0.897800000000     0.181276   
H763     H      0.721940000000     0.059050000000     0.514800000000     0.142289   
H764     H      0.697170000000     0.024160000000     0.559210000000     0.189587   
H765     H      0.728970000000     0.398840000000     0.862480000000     0.209448   
H766     H      0.703880000000     0.086710000000     0.923870000000     0.201092   
H767     H      0.719560000000     0.003330000000     0.583930000000     0.201487   
H768     H      0.708210000000     0.330280000000     0.494460000000     0.192237   
H769     H      0.812130000000     0.322880000000     0.504860000000     0.0355526  
H770     H      0.855110000000     0.368250000000     0.500200000000     0.0380568  
H771     H      0.893030000000     0.352740000000     0.959820000000     0.0443057  
H772     H      0.781780000000     0.322060000000     0.475620000000     0.0387977  
H773     H      0.821470000000     0.281850000000     0.466260000000     0.0412898  
H774     H      0.817560000000     0.310810000000     0.933100000000     0.0410858  
H775     H      0.851990000000     0.394290000000     0.968390000000     0.0445065  
H776     H      0.863520000000     0.354160000000     0.929710000000     0.0393467  
H777     H      0.854770000000     0.054810000000     0.496980000000     0.0377285  
H778     H      0.812200000000     0.100610000000     0.496510000000     0.0376999  
H779     H      0.821340000000     0.137840000000     0.953140000000     0.0431632  
H780     H      0.852350000000     0.025850000000     0.466380000000     0.0431484  
H781     H      0.893840000000     0.066740000000     0.457290000000     0.0436712  
H782     H      0.865120000000     0.063990000000     0.925580000000     0.038191   
H783     H      0.781510000000     0.098410000000     0.966760000000     0.0428095  
H784     H      0.819790000000     0.106880000000     0.924510000000     0.0377151  
H785     H      0.562480000000     0.365550000000     0.496240000000     0.0389915  
H786     H      0.604850000000     0.319030000000     0.496810000000     0.0380854  
H787     H      0.597960000000     0.282500000000     0.954370000000     0.0357678  
H788     H      0.566360000000     0.394210000000     0.465570000000     0.0443089  
H789     H      0.525400000000     0.353070000000     0.454580000000     0.0446714  
H790     H      0.555020000000     0.356680000000     0.925960000000     0.0389384  
H791     H      0.636710000000     0.321370000000     0.971120000000     0.0358366  
H792     H      0.600930000000     0.313610000000     0.926060000000     0.0369114  
H793     H      0.597380000000     0.106640000000     0.918740000000     0.0356953  
H794     H      0.551520000000     0.063860000000     0.922830000000     0.0372429  
H795     H      0.566860000000     0.026450000000     0.463260000000     0.0436004  
H796     H      0.597540000000     0.137610000000     0.947370000000     0.0384584  
H797     H      0.637730000000     0.099000000000     0.459230000000     0.0417369  
H798     H      0.608060000000     0.102560000000     0.489040000000     0.0401332  
H799     H      0.525410000000     0.067110000000     0.453120000000     0.0439152  
H800     H      0.565090000000     0.056670000000     0.492660000000     0.0388569  
H801     H      0.855180000000     0.988240000000     0.867440000000     0.0405096  
H802     H      0.812230000000     0.986230000000     0.820490000000     0.0434193  
H803     H      0.822110000000     0.440790000000     0.784820000000     0.0442367  
H804     H      0.852570000000     0.957910000000     0.896650000000     0.0449068  
H805     H      0.894560000000     0.449410000000     0.855470000000     0.0444413  
H806     H      0.867800000000     0.416990000000     0.858460000000     0.037576   
H807     H      0.782260000000     0.452720000000     0.824190000000     0.046417   
H808     H      0.822460000000     0.413190000000     0.816770000000     0.0363506  
H809     H      0.564230000000     0.926910000000     0.866050000000     0.039052   
H810     H      0.607200000000     0.428390000000     0.820170000000     0.0398371  
H811     H      0.597440000000     0.471580000000     0.783260000000     0.0467236  
H812     H      0.566740000000     0.957090000000     0.895400000000     0.0452045  
H813     H      0.525100000000     0.966480000000     0.854500000000     0.0450854  
H814     H      0.553330000000     0.997590000000     0.857710000000     0.0400945  
H815     H      0.637330000000     0.457740000000     0.822670000000     0.0466659  
H816     H      0.598940000000     0.499730000000     0.814670000000     0.0392577  
H817     H      0.551800000000     0.931990000000     0.566870000000     0.0396367  
H818     H      0.599250000000     0.433370000000     0.609620000000     0.041909   
H819     H      0.636060000000     0.476680000000     0.599640000000     0.0453701  
H820     H      0.524250000000     0.963870000000     0.567850000000     0.04544    
H821     H      0.565940000000     0.969000000000     0.526140000000     0.0442858  
H822     H      0.563750000000     0.001580000000     0.552870000000     0.0328329  
H823     H      0.596660000000     0.463320000000     0.639260000000     0.0468055  
H824     H      0.604400000000     0.504480000000     0.599670000000     0.0368021  
H825     H      0.816620000000     0.421220000000     0.606380000000     0.037955   
H826     H      0.861420000000     0.422930000000     0.563760000000     0.0382939  
H827     H      0.851650000000     0.467180000000     0.528830000000     0.0446766  
H828     H      0.819560000000     0.946310000000     0.639750000000     0.0452034  
H829     H      0.780860000000     0.966140000000     0.601690000000     0.0425739  
H830     H      0.813240000000     0.992800000000     0.605810000000     0.0389459  
H831     H      0.892180000000     0.451290000000     0.568630000000     0.0444018  
H832     H      0.855770000000     0.994160000000     0.560370000000     0.0398558  
H833     H      0.916200000000     0.053270000000     0.859280000000     0.0383498  
H834     H      0.909180000000     0.096920000000     0.816780000000     0.0368067  
H835     H      0.950300000000     0.137240000000     0.820650000000     0.0445274  
H836     H      0.446510000000     0.025020000000     0.854260000000     0.0430273  
H837     H      0.457380000000     0.067150000000     0.893900000000     0.0442191  
H838     H      0.486190000000     0.065270000000     0.863150000000     0.0374351  
H839     H      0.934330000000     0.096490000000     0.783040000000     0.0421762  
H840     H      0.479400000000     0.108600000000     0.815860000000     0.0411661  
H841     H      0.927530000000     0.356110000000     0.862220000000     0.0376059  
H842     H      0.433400000000     0.312590000000     0.816300000000     0.0390107  
H843     H      0.480570000000     0.322930000000     0.784350000000     0.0434144  
H844     H      0.954480000000     0.352990000000     0.894500000000     0.0450705  
H845     H      0.968830000000     0.394760000000     0.855100000000     0.0450168  
H846     H      0.998760000000     0.365680000000     0.860930000000     0.0413532  
H847     H      0.462910000000     0.282990000000     0.821530000000     0.0466396  
H848     H      0.505180000000     0.321860000000     0.818460000000     0.0400853  
H849     H      0.925950000000     0.363260000000     0.567690000000     0.040701   
H850     H      0.929550000000     0.317590000000     0.611040000000     0.0417254  
H851     H      0.971630000000     0.281120000000     0.598820000000     0.045047   
H852     H      0.457670000000     0.392920000000     0.568630000000     0.0443867  
H853     H      0.464900000000     0.352280000000     0.526750000000     0.0445823  
H854     H      0.497130000000     0.355510000000     0.553790000000     0.0374124  
H855     H      0.960470000000     0.320350000000     0.639620000000     0.0426289  
H856     H      0.501370000000     0.312640000000     0.598930000000     0.0349259  
H857     H      0.922060000000     0.099230000000     0.606740000000     0.0359132  
H858     H      0.423760000000     0.053690000000     0.563030000000     0.0359116  
H859     H      0.465090000000     0.066150000000     0.526080000000     0.0434469  
H860     H      0.950610000000     0.097400000000     0.637740000000     0.0403823  
H861     H      0.964790000000     0.136700000000     0.598530000000     0.0427307  
H862     H      0.993920000000     0.106440000000     0.601130000000     0.0393165  
H863     H      0.454100000000     0.024870000000     0.567340000000     0.0428746  
H864     H      0.494690000000     0.062880000000     0.555900000000     0.039385   
H865     H      0.501410000000     0.513050000000     0.255910000000     0.208575   
H866     H      0.510910000000     0.915340000000     0.164420000000     0.202611   
H867     H      0.915820000000     0.906330000000     0.256800000000     0.208715   
H868     H      0.904700000000     0.502900000000     0.164450000000     0.202316   
H869     H      0.566140000000     0.915020000000     0.208180000000     0.125105   
H870     H      0.527380000000     0.860660000000     0.205280000000     0.183348   
H871     H      0.911180000000     0.858110000000     0.199900000000     0.145753   
H872     H      0.855440000000     0.897290000000     0.231770000000     0.19746    
H873     H      0.852300000000     0.506090000000     0.207920000000     0.123958   
H874     H      0.890910000000     0.561040000000     0.206770000000     0.183908   
H875     H      0.502510000000     0.562650000000     0.193140000000     0.147398   
H876     H      0.559240000000     0.523470000000     0.228790000000     0.197635   
H877     H      0.858130000000     0.895480000000     0.192510000000     0.200962   
H878     H      0.919870000000     0.587440000000     0.209990000000     0.200624   
H879     H      0.556600000000     0.523720000000     0.189460000000     0.201374   
H880     H      0.499870000000     0.833100000000     0.210720000000     0.201468   
H881     H      0.510270000000     0.754170000000     0.005880000000     0.212706   
H882     H      0.912870000000     0.662090000000     0.010340000000     0.200973   
H883     H      0.909300000000     0.754300000000     0.414100000000     0.207274   
H884     H      0.505840000000     0.663590000000     0.407690000000     0.204971   
H885     H      0.906390000000     0.706830000000     0.062770000000     0.125147   
H886     H      0.857010000000     0.697080000000     0.022430000000     0.182042   
H887     H      0.861530000000     0.698870000000     0.407550000000     0.143808   
H888     H      0.902440000000     0.730330000000     0.355040000000     0.195163   
H889     H      0.510640000000     0.708310000000     0.354690000000     0.124629   
H890     H      0.564960000000     0.707160000000     0.396750000000     0.183989   
H891     H      0.581100000000     0.716420000000     0.990580000000     0.138041   
H892     H      0.523410000000     0.694120000000     0.056030000000     0.210724   
H893     H      0.901140000000     0.691070000000     0.356360000000     0.199579   
H894     H      0.589660000000     0.712870000000     0.426880000000     0.191892   
H895     H      0.507570000000     0.723110000000     0.077380000000     0.201734   
H896     H      0.833590000000     0.717610000000     0.998370000000     0.200416   
H897     H      0.665270000000     0.511080000000     0.007680000000     0.208556   
H898     H      0.755680000000     0.913830000000     0.014260000000     0.203395   
H899     H      0.664930000000     0.910100000000     0.415710000000     0.208332   
H900     H      0.756890000000     0.506960000000     0.411760000000     0.201348   
H901     H      0.712340000000     0.906170000000     0.064220000000     0.123264   
H902     H      0.710120000000     0.854180000000     0.024340000000     0.184095   
H903     H      0.702830000000     0.839230000000     0.430400000000     0.137213   
H904     H      0.691020000000     0.904830000000     0.355020000000     0.199577   
H905     H      0.713890000000     0.511440000000     0.357170000000     0.125007   
H906     H      0.719730000000     0.561840000000     0.398110000000     0.182032   
H907     H      0.721630000000     0.559280000000     0.013820000000     0.143584   
H908     H      0.697060000000     0.524950000000     0.058740000000     0.190133   
H909     H      0.729660000000     0.901150000000     0.360970000000     0.209239   
H910     H      0.703900000000     0.587000000000     0.423930000000     0.201351   
H911     H      0.719770000000     0.504600000000     0.083570000000     0.202966   
H912     H      0.708600000000     0.829680000000     0.993520000000     0.190933   
H913     H      0.813620000000     0.821760000000     0.003760000000     0.0371303  
H914     H      0.855730000000     0.867240000000     0.999590000000     0.0377963  
H915     H      0.893530000000     0.852780000000     0.460800000000     0.044648   
H916     H      0.781760000000     0.821780000000     0.976100000000     0.0387919  
H917     H      0.820970000000     0.781700000000     0.963090000000     0.0413739  
H918     H      0.818980000000     0.808740000000     0.433280000000     0.0406219  
H919     H      0.852160000000     0.894530000000     0.466290000000     0.044578   
H920     H      0.865070000000     0.853090000000     0.429660000000     0.0393038  
H921     H      0.854660000000     0.554420000000     0.996150000000     0.0382771  
H922     H      0.811870000000     0.600190000000     0.995700000000     0.0377278  
H923     H      0.821950000000     0.638000000000     0.453540000000     0.0435115  
H924     H      0.852340000000     0.525600000000     0.965400000000     0.044111   
H925     H      0.893740000000     0.566670000000     0.956570000000     0.0440625  
H926     H      0.865730000000     0.564120000000     0.425990000000     0.0388467  
H927     H      0.781950000000     0.598660000000     0.466820000000     0.0429061  
H928     H      0.820460000000     0.607140000000     0.424810000000     0.0379359  
H929     H      0.562490000000     0.864670000000     0.996810000000     0.038791   
H930     H      0.604870000000     0.818720000000     0.997440000000     0.0370654  
H931     H      0.598440000000     0.782660000000     0.451370000000     0.0371512  
H932     H      0.566360000000     0.894120000000     0.966880000000     0.0445171  
H933     H      0.525370000000     0.853020000000     0.955280000000     0.0445254  
H934     H      0.554910000000     0.856860000000     0.424320000000     0.0388369  
H935     H      0.637140000000     0.821640000000     0.468460000000     0.0361112  
H936     H      0.600970000000     0.814660000000     0.423930000000     0.0371564  
H937     H      0.598330000000     0.604960000000     0.417070000000     0.0363302  
H938     H      0.553380000000     0.562970000000     0.421590000000     0.0380968  
H939     H      0.566840000000     0.526080000000     0.962740000000     0.0445664  
H940     H      0.597920000000     0.637690000000     0.443730000000     0.0372976  
H941     H      0.637770000000     0.598450000000     0.958680000000     0.0420397  
H942     H      0.609100000000     0.601420000000     0.989520000000     0.0406309  
H943     H      0.525430000000     0.567180000000     0.955600000000     0.0443111  
H944     H      0.565850000000     0.555370000000     0.993110000000     0.0388935  
H945     H      0.854340000000     0.487540000000     0.368900000000     0.0388745  
H946     H      0.810470000000     0.484870000000     0.321220000000     0.042202   
H947     H      0.821390000000     0.941980000000     0.284860000000     0.0447266  
H948     H      0.852590000000     0.455850000000     0.396760000000     0.0442895  
H949     H      0.894150000000     0.948890000000     0.355470000000     0.0450493  
H950     H      0.865750000000     0.917990000000     0.359150000000     0.0378717  
H951     H      0.782050000000     0.957950000000     0.323560000000     0.0471046  
H952     H      0.820410000000     0.915350000000     0.317620000000     0.0367096  
H953     H      0.564420000000     0.427820000000     0.367140000000     0.0388337  
H954     H      0.607480000000     0.929270000000     0.319730000000     0.04003    
H955     H      0.596900000000     0.971970000000     0.283190000000     0.0462846  
H956     H      0.566820000000     0.459030000000     0.395430000000     0.0445224  
H957     H      0.525180000000     0.467250000000     0.354480000000     0.0444138  
H958     H      0.553270000000     0.498500000000     0.357510000000     0.0384056  
H959     H      0.637150000000     0.959080000000     0.322360000000     0.047611   
H960     H      0.598080000000     0.000680000000     0.314020000000     0.0334736  
H961     H      0.552660000000     0.431860000000     0.066110000000     0.0394621  
H962     H      0.598210000000     0.934200000000     0.111720000000     0.0418086  
H963     H      0.635890000000     0.975580000000     0.099230000000     0.0450735  
H964     H      0.524370000000     0.463040000000     0.067830000000     0.0440814  
H965     H      0.565910000000     0.470200000000     0.026230000000     0.0449267  
H966     H      0.563080000000     0.502010000000     0.053820000000     0.0377492  
H967     H      0.596050000000     0.966270000000     0.139100000000     0.0478139  
H968     H      0.605790000000     0.004950000000     0.098160000000     0.0314315  
H969     H      0.816240000000     0.921050000000     0.106310000000     0.0380577  
H970     H      0.861130000000     0.922530000000     0.063810000000     0.0384459  
H971     H      0.851570000000     0.966670000000     0.028690000000     0.0456975  
H972     H      0.819690000000     0.446920000000     0.139990000000     0.0449837  
H973     H      0.780940000000     0.466810000000     0.102000000000     0.0419438  
H974     H      0.813390000000     0.493400000000     0.106030000000     0.0377309  
H975     H      0.891960000000     0.950810000000     0.068660000000     0.0451976  
H976     H      0.855790000000     0.494680000000     0.060580000000     0.0383522  
H977     H      0.916300000000     0.553150000000     0.359260000000     0.0391698  
H978     H      0.909030000000     0.596710000000     0.316790000000     0.0371376  
H979     H      0.949870000000     0.637280000000     0.320690000000     0.0446117  
H980     H      0.446690000000     0.525030000000     0.354220000000     0.0443491  
H981     H      0.457370000000     0.567200000000     0.393840000000     0.0447605  
H982     H      0.486180000000     0.565470000000     0.363090000000     0.0380917  
H983     H      0.934160000000     0.596450000000     0.283040000000     0.0422739  
H984     H      0.479100000000     0.608890000000     0.315790000000     0.0412935  
H985     H      0.927280000000     0.856170000000     0.362480000000     0.03763    
H986     H      0.432750000000     0.812740000000     0.316520000000     0.0389185  
H987     H      0.479780000000     0.822930000000     0.284310000000     0.043456   
H988     H      0.954400000000     0.853000000000     0.394620000000     0.045178   
H989     H      0.968570000000     0.894770000000     0.355120000000     0.045241   
H990     H      0.998510000000     0.865670000000     0.360810000000     0.0413731  
H991     H      0.462180000000     0.783030000000     0.321550000000     0.0466783  
H992     H      0.504590000000     0.821770000000     0.318280000000     0.0401421  
H993     H      0.925250000000     0.863860000000     0.067820000000     0.0406966  
H994     H      0.928630000000     0.818120000000     0.111150000000     0.041357   
H995     H      0.970190000000     0.781220000000     0.098670000000     0.0422013  
H996     H      0.457440000000     0.893140000000     0.068580000000     0.0446064  
H997     H      0.463980000000     0.852410000000     0.026650000000     0.0448684  
H998     H      0.496460000000     0.855450000000     0.053400000000     0.0375833  
H999     H      0.959760000000     0.820570000000     0.139540000000     0.0419658  
H1000    H      0.500690000000     0.812530000000     0.098600000000     0.0349676  
H1001    H      0.921560000000     0.598960000000     0.106850000000     0.0361883  
H1002    H      0.423610000000     0.553460000000     0.063130000000     0.0367597  
H1003    H      0.464740000000     0.566260000000     0.026050000000     0.0441685  
H1004    H      0.950200000000     0.597430000000     0.137780000000     0.0404853  
H1005    H      0.963850000000     0.636860000000     0.098530000000     0.0460714  
H1006    H      0.993320000000     0.606930000000     0.101090000000     0.0404232  
H1007    H      0.454220000000     0.524900000000     0.067360000000     0.0441256  
H1008    H      0.494450000000     0.563250000000     0.055800000000     0.0400633  
H1009    H      0.501560000000     0.512940000000     0.755880000000     0.208562   
H1010    H      0.510990000000     0.915200000000     0.664440000000     0.20279    
H1011    H      0.915900000000     0.906290000000     0.756780000000     0.208952   
H1012    H      0.904860000000     0.502840000000     0.664350000000     0.202021   
H1013    H      0.566230000000     0.914870000000     0.708300000000     0.125088   
H1014    H      0.527300000000     0.860330000000     0.705470000000     0.183276   
H1015    H      0.911360000000     0.858000000000     0.699490000000     0.145882   
H1016    H      0.855380000000     0.897340000000     0.731680000000     0.197365   
H1017    H      0.852430000000     0.506050000000     0.707650000000     0.123822   
H1018    H      0.890990000000     0.560850000000     0.706510000000     0.183874   
H1019    H      0.502830000000     0.562450000000     0.693230000000     0.147327   
H1020    H      0.559330000000     0.523320000000     0.728810000000     0.19783    
H1021    H      0.858290000000     0.895410000000     0.692440000000     0.20087    
H1022    H      0.919880000000     0.587300000000     0.709890000000     0.200668   
H1023    H      0.556780000000     0.523550000000     0.689480000000     0.201348   
H1024    H      0.499640000000     0.832870000000     0.710650000000     0.201471   
H1025    H      0.511230000000     0.754170000000     0.505430000000     0.212413   
H1026    H      0.913830000000     0.662030000000     0.510800000000     0.199843   
H1027    H      0.909260000000     0.754260000000     0.913500000000     0.20725    
H1028    H      0.505920000000     0.663510000000     0.908200000000     0.205047   
H1029    H      0.907660000000     0.706940000000     0.563070000000     0.125058   
H1030    H      0.858040000000     0.696600000000     0.523330000000     0.182186   
H1031    H      0.861570000000     0.698630000000     0.906550000000     0.143904   
H1032    H      0.902960000000     0.730270000000     0.854390000000     0.195141   
H1033    H      0.511270000000     0.708190000000     0.855210000000     0.124647   
H1034    H      0.564800000000     0.709210000000     0.897530000000     0.184291   
H1035    H      0.582260000000     0.705470000000     0.489110000000     0.138941   
H1036    H      0.524430000000     0.692850000000     0.555870000000     0.210201   
H1037    H      0.901680000000     0.691010000000     0.855680000000     0.199655   
H1038    H      0.589520000000     0.710550000000     0.928150000000     0.192015   
H1039    H      0.510740000000     0.724170000000     0.575310000000     0.201338   
H1040    H      0.834560000000     0.717670000000     0.499800000000     0.201442   
H1041    H      0.665330000000     0.511310000000     0.507950000000     0.207342   
H1042    H      0.755760000000     0.913950000000     0.513940000000     0.203383   
H1043    H      0.664860000000     0.909330000000     0.916050000000     0.208101   
H1044    H      0.756820000000     0.506230000000     0.911510000000     0.201303   
H1045    H      0.712620000000     0.906030000000     0.563880000000     0.123159   
H1046    H      0.710080000000     0.854410000000     0.523770000000     0.184311   
H1047    H      0.702220000000     0.838750000000     0.930990000000     0.136879   
H1048    H      0.690980000000     0.903580000000     0.855550000000     0.199312   
H1049    H      0.713920000000     0.510260000000     0.856780000000     0.125053   
H1050    H      0.719590000000     0.560880000000     0.897440000000     0.182042   
H1051    H      0.721960000000     0.559410000000     0.514380000000     0.142792   
H1052    H      0.697240000000     0.524870000000     0.559090000000     0.189967   
H1053    H      0.729660000000     0.900060000000     0.861380000000     0.209137   
H1054    H      0.703720000000     0.586230000000     0.923060000000     0.201205   
H1055    H      0.719770000000     0.504280000000     0.583890000000     0.202837   
H1056    H      0.708590000000     0.830020000000     0.492860000000     0.192026   
H1057    H      0.812040000000     0.823120000000     0.504140000000     0.0354874  
H1058    H      0.855090000000     0.868550000000     0.499440000000     0.0381233  
H1059    H      0.893190000000     0.852740000000     0.959390000000     0.044548   
H1060    H      0.781880000000     0.822160000000     0.474710000000     0.0388201  
H1061    H      0.821600000000     0.781910000000     0.465810000000     0.0412855  
H1062    H      0.817840000000     0.810690000000     0.932540000000     0.040992   
H1063    H      0.852090000000     0.894350000000     0.967440000000     0.0444526  
H1064    H      0.863840000000     0.853980000000     0.929120000000     0.0393266  
H1065    H      0.854790000000     0.554560000000     0.496700000000     0.0385742  
H1066    H      0.812170000000     0.600450000000     0.496210000000     0.0379691  
H1067    H      0.821480000000     0.637760000000     0.953010000000     0.0433799  
H1068    H      0.852450000000     0.525750000000     0.465960000000     0.0443878  
H1069    H      0.893990000000     0.566700000000     0.457220000000     0.0441247  
H1070    H      0.865410000000     0.564020000000     0.925410000000     0.0387963  
H1071    H      0.781630000000     0.598290000000     0.966350000000     0.0429548  
H1072    H      0.820050000000     0.606890000000     0.924290000000     0.0380035  
H1073    H      0.562790000000     0.865410000000     0.495730000000     0.039104   
H1074    H      0.605230000000     0.818890000000     0.495940000000     0.0381688  
H1075    H      0.598040000000     0.782460000000     0.953470000000     0.035723   
H1076    H      0.566490000000     0.894140000000     0.465110000000     0.0445381  
H1077    H      0.525480000000     0.853040000000     0.454240000000     0.0447829  
H1078    H      0.554970000000     0.856690000000     0.925500000000     0.0389995  
H1079    H      0.636890000000     0.821310000000     0.970070000000     0.0357764  
H1080    H      0.600820000000     0.813660000000     0.925240000000     0.0368217  
H1081    H      0.597330000000     0.606530000000     0.918250000000     0.0359512  
H1082    H      0.551570000000     0.563790000000     0.922660000000     0.0379048  
H1083    H      0.566950000000     0.526530000000     0.463230000000     0.0447437  
H1084    H      0.597610000000     0.637610000000     0.946750000000     0.0385268  
H1085    H      0.637850000000     0.599000000000     0.458560000000     0.04174    
H1086    H      0.608360000000     0.602740000000     0.488530000000     0.0401827  
H1087    H      0.525500000000     0.567130000000     0.453000000000     0.0443369  
H1088    H      0.565280000000     0.556890000000     0.492500000000     0.0393105  
H1089    H      0.854100000000     0.487020000000     0.869100000000     0.0388938  
H1090    H      0.810170000000     0.484210000000     0.821350000000     0.042173   
H1091    H      0.821520000000     0.941610000000     0.784800000000     0.0446254  
H1092    H      0.852580000000     0.455150000000     0.896770000000     0.0442032  
H1093    H      0.894220000000     0.948790000000     0.855430000000     0.0449969  
H1094    H      0.866100000000     0.917620000000     0.858960000000     0.037774   
H1095    H      0.782040000000     0.956980000000     0.823600000000     0.0471407  
H1096    H      0.820770000000     0.914800000000     0.817400000000     0.0366277  
H1097    H      0.564240000000     0.427240000000     0.867030000000     0.0387974  
H1098    H      0.607240000000     0.928480000000     0.819700000000     0.0397505  
H1099    H      0.597030000000     0.971330000000     0.783220000000     0.0475092  
H1100    H      0.566800000000     0.458340000000     0.895410000000     0.0444936  
H1101    H      0.525260000000     0.466970000000     0.854460000000     0.044479   
H1102    H      0.553550000000     0.498010000000     0.857580000000     0.0385566  
H1103    H      0.637170000000     0.958030000000     0.822370000000     0.0470237  
H1104    H      0.598410000000     0.999960000000     0.814100000000     0.0402188  
H1105    H      0.552830000000     0.431740000000     0.565980000000     0.039353   
H1106    H      0.598300000000     0.933850000000     0.611550000000     0.0417444  
H1107    H      0.636000000000     0.975300000000     0.599290000000     0.0450467  
H1108    H      0.524470000000     0.462860000000     0.567840000000     0.0440075  
H1109    H      0.565980000000     0.470330000000     0.526290000000     0.0447018  
H1110    H      0.563140000000     0.501970000000     0.554060000000     0.0376312  
H1111    H      0.596180000000     0.965750000000     0.639130000000     0.0478062  
H1112    H      0.605910000000     0.004680000000     0.598400000000     0.0313343  
H1113    H      0.816440000000     0.920830000000     0.606210000000     0.0379608  
H1114    H      0.861310000000     0.922470000000     0.563720000000     0.0382818  
H1115    H      0.851650000000     0.966630000000     0.528660000000     0.0454648  
H1116    H      0.819820000000     0.446640000000     0.639940000000     0.0449475  
H1117    H      0.781030000000     0.466530000000     0.602010000000     0.0418909  
H1118    H      0.813420000000     0.493180000000     0.606090000000     0.0376962  
H1119    H      0.892080000000     0.950810000000     0.568590000000     0.0450696  
H1120    H      0.855830000000     0.494620000000     0.560600000000     0.0382774  
H1121    H      0.916500000000     0.553260000000     0.859110000000     0.0391955  
H1122    H      0.909570000000     0.596900000000     0.816590000000     0.0371797  
H1123    H      0.950650000000     0.637260000000     0.820580000000     0.0445781  
H1124    H      0.446850000000     0.525030000000     0.854180000000     0.0443798  
H1125    H      0.457580000000     0.567160000000     0.893850000000     0.0446807  
H1126    H      0.486470000000     0.565310000000     0.863180000000     0.0380367  
H1127    H      0.934820000000     0.596500000000     0.782930000000     0.0422856  
H1128    H      0.479780000000     0.608630000000     0.815880000000     0.0413221  
H1129    H      0.927470000000     0.856050000000     0.862160000000     0.0376405  
H1130    H      0.433440000000     0.812520000000     0.816240000000     0.0389773  
H1131    H      0.480590000000     0.822980000000     0.784300000000     0.0433657  
H1132    H      0.954410000000     0.852960000000     0.894460000000     0.0451529  
H1133    H      0.968730000000     0.894760000000     0.855080000000     0.0452382  
H1134    H      0.998690000000     0.865710000000     0.860900000000     0.041383   
H1135    H      0.463010000000     0.782990000000     0.821480000000     0.0466276  
H1136    H      0.505210000000     0.821950000000     0.818410000000     0.040037   
H1137    H      0.926120000000     0.863370000000     0.567670000000     0.0407301  
H1138    H      0.929800000000     0.817630000000     0.611060000000     0.0416971  
H1139    H      0.971860000000     0.781170000000     0.598740000000     0.0450002  
H1140    H      0.457900000000     0.892980000000     0.568580000000     0.0445154  
H1141    H      0.464980000000     0.852310000000     0.526680000000     0.0447121  
H1142    H      0.497280000000     0.855550000000     0.553640000000     0.0374462  
H1143    H      0.960790000000     0.820420000000     0.639560000000     0.0425731  
H1144    H      0.501600000000     0.812710000000     0.598780000000     0.0349319  
H1145    H      0.922600000000     0.599140000000     0.606770000000     0.0361484  
H1146    H      0.424270000000     0.553560000000     0.563030000000     0.0366169  
H1147    H      0.465480000000     0.566150000000     0.525980000000     0.0438267  
H1148    H      0.951250000000     0.597350000000     0.637680000000     0.0404068  
H1149    H      0.965250000000     0.636680000000     0.598450000000     0.042691   
H1150    H      0.994430000000     0.606470000000     0.600960000000     0.0394643  
H1151    H      0.454710000000     0.524830000000     0.567280000000     0.0440249  
H1152    H      0.495160000000     0.562950000000     0.555740000000     0.0397208  
N1       N      0.360090000000     0.314590000000     0.461550000000    -0.161886   
N2       N      0.314340000000     0.361020000000     0.472990000000    -0.162491   
N3       N      0.360510000000     0.104980000000     0.454770000000    -0.162451   
N4       N      0.314280000000     0.059450000000     0.968190000000    -0.162625   
N5       N      0.058980000000     0.315250000000     0.952980000000    -0.162507   
N6       N      0.104120000000     0.360690000000     0.469480000000    -0.162371   
N7       N      0.104780000000     0.059700000000     0.963210000000    -0.162617   
N8       N      0.058770000000     0.104980000000     0.950230000000    -0.163449   
N9       N      0.360890000000     0.444710000000     0.317650000000    -0.162577   
N10      N      0.314790000000     0.458030000000     0.363090000000    -0.162378   
N11      N      0.058290000000     0.970690000000     0.316200000000    -0.161995   
N12      N      0.104700000000     0.456410000000     0.361760000000    -0.161508   
N13      N      0.103470000000     0.972730000000     0.060070000000    -0.163484   
N14      N      0.057470000000     0.961660000000     0.106080000000    -0.162071   
N15      N      0.313650000000     0.967910000000     0.062710000000    -0.162256   
N16      N      0.358510000000     0.447860000000     0.106830000000    -0.162536   
N17      N      0.455790000000     0.104900000000     0.359830000000    -0.162266   
N18      N      0.940000000000     0.058130000000     0.316150000000    -0.162477   
N19      N      0.474810000000     0.361530000000     0.317230000000    -0.161987   
N20      N      0.456190000000     0.315390000000     0.360560000000    -0.162183   
N21      N      0.967920000000     0.314200000000     0.060000000000    -0.162292   
N22      N      0.457050000000     0.359530000000     0.106790000000    -0.162646   
N23      N      0.965530000000     0.104190000000     0.059590000000    -0.161048   
N24      N      0.949730000000     0.058450000000     0.105200000000    -0.162576   
N25      N      0.359610000000     0.314640000000     0.959930000000    -0.162119   
N26      N      0.314320000000     0.360700000000     0.973800000000    -0.162291   
N27      N      0.360130000000     0.104880000000     0.954130000000    -0.162501   
N28      N      0.314480000000     0.059690000000     0.468690000000    -0.162618   
N29      N      0.059210000000     0.315380000000     0.451700000000    -0.162405   
N30      N      0.103980000000     0.360470000000     0.970830000000    -0.162368   
N31      N      0.104860000000     0.060240000000     0.463190000000    -0.162578   
N32      N      0.059090000000     0.104980000000     0.448020000000    -0.163221   
N33      N      0.360990000000     0.444530000000     0.817610000000    -0.162578   
N34      N      0.314780000000     0.457330000000     0.863130000000    -0.162336   
N35      N      0.058390000000     0.970320000000     0.816210000000    -0.161389   
N36      N      0.104690000000     0.455670000000     0.861740000000    -0.161469   
N37      N      0.103570000000     0.972700000000     0.560120000000    -0.163574   
N38      N      0.057600000000     0.961410000000     0.606080000000    -0.162091   
N39      N      0.313730000000     0.967820000000     0.562690000000    -0.162373   
N40      N      0.358620000000     0.447800000000     0.606790000000    -0.162515   
N41      N      0.456230000000     0.104850000000     0.859810000000    -0.162284   
N42      N      0.940350000000     0.058150000000     0.816070000000    -0.16246    
N43      N      0.475220000000     0.361550000000     0.817200000000    -0.162047   
N44      N      0.456580000000     0.315340000000     0.860430000000    -0.162227   
N45      N      0.969270000000     0.314130000000     0.560060000000    -0.162406   
N46      N      0.457560000000     0.359370000000     0.606790000000    -0.16264    
N47      N      0.966580000000     0.104000000000     0.559500000000    -0.161468   
N48      N      0.950430000000     0.058370000000     0.605110000000    -0.162547   
N49      N      0.360240000000     0.814610000000     0.461180000000    -0.161935   
N50      N      0.314440000000     0.861120000000     0.472130000000    -0.162417   
N51      N      0.360660000000     0.604940000000     0.454680000000    -0.162387   
N52      N      0.314390000000     0.559320000000     0.967860000000    -0.162342   
N53      N      0.059050000000     0.815230000000     0.952440000000    -0.162527   
N54      N      0.104270000000     0.860630000000     0.468770000000    -0.162355   
N55      N      0.104900000000     0.559760000000     0.962920000000    -0.162422   
N56      N      0.058860000000     0.605000000000     0.949910000000    -0.163515   
N57      N      0.360380000000     0.944880000000     0.317610000000    -0.162633   
N58      N      0.314820000000     0.960680000000     0.362670000000    -0.162106   
N59      N      0.058570000000     0.470900000000     0.316230000000    -0.16168    
N60      N      0.104640000000     0.956140000000     0.361480000000    -0.160981   
N61      N      0.103480000000     0.473720000000     0.060350000000    -0.162518   
N62      N      0.057830000000     0.460470000000     0.106010000000    -0.162985   
N63      N      0.313730000000     0.468320000000     0.062960000000    -0.162657   
N64      N      0.358310000000     0.947500000000     0.106730000000    -0.162429   
N65      N      0.456020000000     0.604910000000     0.359780000000    -0.162276   
N66      N      0.940440000000     0.558140000000     0.316050000000    -0.162174   
N67      N      0.474740000000     0.861560000000     0.317190000000    -0.162044   
N68      N      0.456190000000     0.815370000000     0.360510000000    -0.162238   
N69      N      0.968070000000     0.814240000000     0.059920000000    -0.162266   
N70      N      0.457250000000     0.859600000000     0.106740000000    -0.162626   
N71      N      0.965930000000     0.604190000000     0.059510000000    -0.160997   
N72      N      0.950340000000     0.558400000000     0.105140000000    -0.162368   
N73      N      0.359770000000     0.814640000000     0.959550000000    -0.16216    
N74      N      0.314410000000     0.860810000000     0.972960000000    -0.162513   
N75      N      0.360290000000     0.604820000000     0.954050000000    -0.162398   
N76      N      0.314580000000     0.559570000000     0.468340000000    -0.162382   
N77      N      0.059280000000     0.815350000000     0.451200000000    -0.162451   
N78      N      0.104130000000     0.860380000000     0.970120000000    -0.162296   
N79      N      0.104970000000     0.560290000000     0.462920000000    -0.162357   
N80      N      0.059170000000     0.604990000000     0.447740000000    -0.163264   
N81      N      0.360490000000     0.944680000000     0.817570000000    -0.162581   
N82      N      0.314790000000     0.959940000000     0.862720000000    -0.162122   
N83      N      0.058670000000     0.470540000000     0.816240000000    -0.161618   
N84      N      0.104620000000     0.955380000000     0.861480000000    -0.161268   
N85      N      0.103570000000     0.473720000000     0.560410000000    -0.162652   
N86      N      0.057950000000     0.460240000000     0.606000000000    -0.16298    
N87      N      0.313800000000     0.468260000000     0.562950000000    -0.162717   
N88      N      0.358430000000     0.947420000000     0.606680000000    -0.162419   
N89      N      0.456470000000     0.604860000000     0.859760000000    -0.162237   
N90      N      0.940770000000     0.558170000000     0.815970000000    -0.162175   
N91      N      0.475160000000     0.861580000000     0.817170000000    -0.162126   
N92      N      0.456590000000     0.815320000000     0.860370000000    -0.16225    
N93      N      0.969410000000     0.814170000000     0.559990000000    -0.162299   
N94      N      0.457780000000     0.859440000000     0.606740000000    -0.162608   
N95      N      0.966970000000     0.604000000000     0.559410000000    -0.161418   
N96      N      0.951030000000     0.558330000000     0.605050000000    -0.162261   
N97      N      0.859980000000     0.314570000000     0.461100000000    -0.161898   
N98      N      0.814310000000     0.360980000000     0.472870000000    -0.162458   
N99      N      0.860510000000     0.104920000000     0.454080000000    -0.162501   
N100     N      0.814300000000     0.059440000000     0.967800000000    -0.162615   
N101     N      0.559060000000     0.315190000000     0.952990000000    -0.162286   
N102     N      0.604140000000     0.360660000000     0.469530000000    -0.162267   
N103     N      0.604770000000     0.059660000000     0.963030000000    -0.162649   
N104     N      0.558710000000     0.104900000000     0.950070000000    -0.163269   
N105     N      0.860900000000     0.444660000000     0.317640000000    -0.162638   
N106     N      0.814790000000     0.457980000000     0.363070000000    -0.16234    
N107     N      0.558240000000     0.970970000000     0.316260000000    -0.16183    
N108     N      0.604660000000     0.456520000000     0.361750000000    -0.161423   
N109     N      0.603490000000     0.972970000000     0.060040000000    -0.163455   
N110     N      0.557470000000     0.962240000000     0.106130000000    -0.161836   
N111     N      0.813650000000     0.967990000000     0.062670000000    -0.162358   
N112     N      0.858470000000     0.447930000000     0.106840000000    -0.162485   
N113     N      0.957160000000     0.104900000000     0.359430000000    -0.161969   
N114     N      0.439340000000     0.058140000000     0.316260000000    -0.162436   
N115     N      0.975030000000     0.361350000000     0.317210000000    -0.162355   
N116     N      0.955500000000     0.315410000000     0.360290000000    -0.161863   
N117     N      0.469260000000     0.314330000000     0.060040000000    -0.16253    
N118     N      0.955670000000     0.359340000000     0.106800000000    -0.162426   
N119     N      0.466320000000     0.104200000000     0.059950000000    -0.161195   
N120     N      0.449070000000     0.058710000000     0.105220000000    -0.162661   
N121     N      0.859500000000     0.314600000000     0.959530000000    -0.162092   
N122     N      0.814290000000     0.360650000000     0.973700000000    -0.162376   
N123     N      0.860130000000     0.104820000000     0.953490000000    -0.162589   
N124     N      0.814500000000     0.059700000000     0.468300000000    -0.162664   
N125     N      0.559290000000     0.315320000000     0.451700000000    -0.161856   
N126     N      0.604000000000     0.360420000000     0.970890000000    -0.162276   
N127     N      0.604850000000     0.060220000000     0.463090000000    -0.162537   
N128     N      0.559030000000     0.104910000000     0.447930000000    -0.163581   
N129     N      0.861000000000     0.444460000000     0.817590000000    -0.162651   
N130     N      0.814770000000     0.457210000000     0.863100000000    -0.162279   
N131     N      0.558350000000     0.970550000000     0.816260000000    -0.16117    
N132     N      0.604650000000     0.455710000000     0.861740000000    -0.161466   
N133     N      0.603590000000     0.972910000000     0.560100000000    -0.163555   
N134     N      0.557580000000     0.961960000000     0.606130000000    -0.161928   
N135     N      0.813730000000     0.967860000000     0.562660000000    -0.162396   
N136     N      0.858600000000     0.447810000000     0.606780000000    -0.162526   
N137     N      0.957560000000     0.104860000000     0.859400000000    -0.162026   
N138     N      0.439710000000     0.058150000000     0.816200000000    -0.162417   
N139     N      0.975430000000     0.361370000000     0.817190000000    -0.162381   
N140     N      0.955850000000     0.315370000000     0.860140000000    -0.161987   
N141     N      0.470280000000     0.314260000000     0.560110000000    -0.162506   
N142     N      0.956400000000     0.359150000000     0.606800000000    -0.162159   
N143     N      0.467290000000     0.104060000000     0.559900000000    -0.161275   
N144     N      0.449710000000     0.058660000000     0.605150000000    -0.162564   
N145     N      0.860140000000     0.814590000000     0.460690000000    -0.161944   
N146     N      0.814410000000     0.861080000000     0.471980000000    -0.162444   
N147     N      0.860660000000     0.604870000000     0.453970000000    -0.162383   
N148     N      0.814410000000     0.559310000000     0.967460000000    -0.1624     
N149     N      0.559130000000     0.815160000000     0.952450000000    -0.162301   
N150     N      0.604300000000     0.860590000000     0.468780000000    -0.162355   
N151     N      0.604890000000     0.559720000000     0.962730000000    -0.162417   
N152     N      0.558800000000     0.604920000000     0.949760000000    -0.163318   
N153     N      0.860400000000     0.944820000000     0.317610000000    -0.162701   
N154     N      0.814810000000     0.960620000000     0.362650000000    -0.162087   
N155     N      0.558520000000     0.471190000000     0.316290000000    -0.161486   
N156     N      0.604600000000     0.956240000000     0.361480000000    -0.160916   
N157     N      0.603500000000     0.473970000000     0.060310000000    -0.162432   
N158     N      0.557830000000     0.461040000000     0.106050000000    -0.162758   
N159     N      0.813730000000     0.468400000000     0.062910000000    -0.162755   
N160     N      0.858260000000     0.947570000000     0.106740000000    -0.162355   
N161     N      0.957430000000     0.604910000000     0.359380000000    -0.161977   
N162     N      0.439750000000     0.558150000000     0.316160000000    -0.162172   
N163     N      0.974970000000     0.861380000000     0.317180000000    -0.162333   
N164     N      0.955530000000     0.815400000000     0.360240000000    -0.161942   
N165     N      0.469400000000     0.814370000000     0.059970000000    -0.162427   
N166     N      0.955880000000     0.859410000000     0.106750000000    -0.162467   
N167     N      0.466720000000     0.604190000000     0.059860000000    -0.161094   
N168     N      0.449650000000     0.558660000000     0.105160000000    -0.162446   
N169     N      0.859650000000     0.814610000000     0.959150000000    -0.162024   
N170     N      0.814390000000     0.860750000000     0.972870000000    -0.16252    
N171     N      0.860280000000     0.604760000000     0.953400000000    -0.162336   
N172     N      0.814600000000     0.559590000000     0.467940000000    -0.162329   
N173     N      0.559360000000     0.815290000000     0.451150000000    -0.16182    
N174     N      0.604160000000     0.860340000000     0.970180000000    -0.162384   
N175     N      0.604960000000     0.560280000000     0.462800000000    -0.162347   
N176     N      0.559100000000     0.604910000000     0.447630000000    -0.163551   
N177     N      0.860510000000     0.944600000000     0.817560000000    -0.162603   
N178     N      0.814780000000     0.959830000000     0.862690000000    -0.162059   
N179     N      0.558640000000     0.470760000000     0.816290000000    -0.161394   
N180     N      0.604580000000     0.955430000000     0.861480000000    -0.161249   
N181     N      0.603590000000     0.473930000000     0.560380000000    -0.162594   
N182     N      0.557940000000     0.460770000000     0.606050000000    -0.162796   
N183     N      0.813810000000     0.468300000000     0.562910000000    -0.16269    
N184     N      0.858400000000     0.947440000000     0.606680000000    -0.162389   
N185     N      0.957820000000     0.604870000000     0.859350000000    -0.162075   
N186     N      0.440130000000     0.558170000000     0.816100000000    -0.162159   
N187     N      0.975370000000     0.861400000000     0.817160000000    -0.162342   
N188     N      0.955860000000     0.815350000000     0.860080000000    -0.161948   
N189     N      0.470430000000     0.814300000000     0.560030000000    -0.162459   
N190     N      0.956600000000     0.859210000000     0.606750000000    -0.162182   
N191     N      0.467690000000     0.604050000000     0.559810000000    -0.161271   
N192     N      0.450300000000     0.558610000000     0.605100000000    -0.162436   
O1       O      0.949590000000     0.045950000000     0.157650000000    -0.365172   
O2       O      0.453780000000     0.007340000000     0.120940000000    -0.357283   
O3       O      0.045460000000     0.967100000000     0.264000000000    -0.358446   
O4       O      0.007090000000     0.466080000000     0.301140000000    -0.355444   
O5       O      0.044740000000     0.964320000000     0.158140000000    -0.365385   
O6       O      0.006200000000     0.461260000000     0.121220000000    -0.357213   
O7       O      0.943790000000     0.045790000000     0.263950000000    -0.355984   
O8       O      0.450710000000     0.007780000000     0.301140000000    -0.356942   
O9       O      0.991290000000     0.063560000000     0.213860000000    -0.339072   
O10      O      0.411840000000     0.065810000000     0.209040000000    -0.511594   
O11      O      0.051780000000     0.013640000000     0.209610000000    -0.515522   
O12      O      0.072410000000     0.436150000000     0.211480000000    -0.326848   
O13      O      0.989450000000     0.998280000000     0.179360000000    -0.464034   
O14      O      0.989620000000     0.998520000000     0.242450000000    -0.598624   
O15      O      0.372500000000     0.450440000000     0.265440000000    -0.361207   
O16      O      0.411280000000     0.952290000000     0.302010000000    -0.352966   
O17      O      0.462220000000     0.372530000000     0.158810000000    -0.363861   
O18      O      0.958070000000     0.410920000000     0.121650000000    -0.353033   
O19      O      0.471730000000     0.373670000000     0.264940000000    -0.35644    
O20      O      0.965940000000     0.412100000000     0.301750000000    -0.351302   
O21      O      0.371260000000     0.450630000000     0.159040000000    -0.363413   
O22      O      0.409570000000     0.953470000000     0.121800000000    -0.351297   
O23      O      0.363030000000     0.406400000000     0.212070000000    -0.514235   
O24      O      0.344880000000     0.983760000000     0.212320000000    -0.325336   
O25      O      0.426960000000     0.353820000000     0.216350000000    -0.341454   
O26      O      0.005460000000     0.354410000000     0.208410000000    -0.522561   
O27      O      0.427310000000     0.420920000000     0.243190000000    -0.612066   
O28      O      0.426700000000     0.420600000000     0.180460000000    -0.469231   
O29      O      0.418530000000     0.991790000000     0.245380000000    -0.471585   
O30      O      0.997410000000     0.426850000000     0.177880000000    -0.617576   
O31      O      0.418230000000     0.991420000000     0.178050000000    -0.617408   
O32      O      0.998290000000     0.427240000000     0.245190000000    -0.472958   
O33      O      0.046470000000     0.157110000000     0.952990000000    -0.363675   
O34      O      0.008190000000     0.120220000000     0.455590000000    -0.356148   
O35      O      0.963690000000     0.262260000000     0.047280000000    -0.361167   
O36      O      0.463470000000     0.299330000000     0.008560000000    -0.354146   
O37      O      0.963220000000     0.156350000000     0.046990000000    -0.358686   
O38      O      0.463110000000     0.119650000000     0.008170000000    -0.35214    
O39      O      0.046410000000     0.263040000000     0.953580000000    -0.365091   
O40      O      0.007890000000     0.299820000000     0.456520000000    -0.354189   
O41      O      0.060470000000     0.209800000000     0.000000000000    -0.340668   
O42      O      0.068660000000     0.210210000000     0.419490000000    -0.513203   
O43      O      0.006210000000     0.208860000000     0.059180000000    -0.51432    
O44      O      0.428030000000     0.209440000000     0.071630000000    -0.333348   
O45      O      0.996550000000     0.178190000000     0.993510000000    -0.459648   
O46      O      0.996190000000     0.240840000000     0.993590000000    -0.605494   
O47      O      0.457870000000     0.263180000000     0.372910000000    -0.361526   
O48      O      0.956670000000     0.299810000000     0.411920000000    -0.351827   
O49      O      0.373310000000     0.156840000000     0.459960000000    -0.361953   
O50      O      0.411600000000     0.119860000000     0.958400000000    -0.354876   
O51      O      0.373110000000     0.262650000000     0.464670000000    -0.35909    
O52      O      0.411280000000     0.299630000000     0.960800000000    -0.353547   
O53      O      0.455820000000     0.157120000000     0.372450000000    -0.362541   
O54      O      0.958170000000     0.120230000000     0.411080000000    -0.351249   
O55      O      0.410750000000     0.210990000000     0.362680000000    -0.516558   
O56      O      0.989250000000     0.209870000000     0.347030000000    -0.325703   
O57      O      0.353610000000     0.211890000000     0.426100000000    -0.336197   
O58      O      0.353700000000     0.207920000000     0.003440000000    -0.515261   
O59      O      0.422690000000     0.240960000000     0.426980000000    -0.612231   
O60      O      0.422660000000     0.178550000000     0.426640000000    -0.468665   
O61      O      0.994000000000     0.243800000000     0.421730000000    -0.472942   
O62      O      0.425270000000     0.175940000000     0.997750000000    -0.625401   
O63      O      0.993880000000     0.176840000000     0.421640000000    -0.618561   
O64      O      0.425120000000     0.243570000000     0.998290000000    -0.475686   
O65      O      0.262370000000     0.046860000000     0.962940000000    -0.36235    
O66      O      0.299290000000     0.008290000000     0.464480000000    -0.356159   
O67      O      0.155450000000     0.966430000000     0.048550000000    -0.357747   
O68      O      0.119060000000     0.465630000000     0.009480000000    -0.352277   
O69      O      0.261620000000     0.965070000000     0.049880000000    -0.361712   
O70      O      0.298680000000     0.464180000000     0.011360000000    -0.350725   
O71      O      0.156590000000     0.046920000000     0.959120000000    -0.360703   
O72      O      0.119820000000     0.008620000000     0.461530000000    -0.355454   
O73      O      0.207510000000     0.066290000000     0.997220000000    -0.33981    
O74      O      0.211310000000     0.066620000000     0.419390000000    -0.516341   
O75      O      0.208560000000     0.005340000000     0.063810000000    -0.512719   
O76      O      0.207980000000     0.428040000000     0.073620000000    -0.334927   
O77      O      0.240230000000     0.997060000000     0.996280000000    -0.464694   
O78      O      0.178350000000     0.996920000000     0.995490000000    -0.608434   
O79      O      0.156860000000     0.458400000000     0.374570000000    -0.359073   
O80      O      0.119930000000     0.957960000000     0.413240000000    -0.353416   
O81      O      0.262170000000     0.373250000000     0.469990000000    -0.361776   
O82      O      0.298880000000     0.411750000000     0.966830000000    -0.354424   
O83      O      0.156270000000     0.373290000000     0.469010000000    -0.364217   
O84      O      0.119490000000     0.411850000000     0.965820000000    -0.35317    
O85      O      0.262710000000     0.457720000000     0.375540000000    -0.363083   
O86      O      0.299330000000     0.959390000000     0.414390000000    -0.353607   
O87      O      0.209810000000     0.411630000000     0.365150000000    -0.510998   
O88      O      0.210020000000     0.990680000000     0.349500000000    -0.323187   
O89      O      0.209660000000     0.359110000000     0.422820000000    -0.337961   
O90      O      0.209100000000     0.351100000000     0.003060000000    -0.512245   
O91      O      0.178330000000     0.423300000000     0.428780000000    -0.608846   
O92      O      0.241020000000     0.423070000000     0.429080000000    -0.459473   
O93      O      0.175800000000     0.995140000000     0.424070000000    -0.472025   
O94      O      0.242280000000     0.426010000000     0.000960000000    -0.622971   
O95      O      0.243140000000     0.994910000000     0.424840000000    -0.61759    
O96      O      0.175100000000     0.425790000000     0.000670000000    -0.47471    
O97      O      0.950030000000     0.045860000000     0.657560000000    -0.365023   
O98      O      0.454070000000     0.007250000000     0.620870000000    -0.357038   
O99      O      0.045570000000     0.966850000000     0.764000000000    -0.358572   
O100     O      0.007180000000     0.465950000000     0.801120000000    -0.355431   
O101     O      0.044870000000     0.964120000000     0.658130000000    -0.365349   
O102     O      0.006330000000     0.461110000000     0.621200000000    -0.357223   
O103     O      0.944070000000     0.045760000000     0.763870000000    -0.355891   
O104     O      0.450880000000     0.007740000000     0.801100000000    -0.357123   
O105     O      0.991360000000     0.063570000000     0.713830000000    -0.338894   
O106     O      0.411960000000     0.065690000000     0.708920000000    -0.511858   
O107     O      0.051900000000     0.013530000000     0.709620000000    -0.515593   
O108     O      0.072530000000     0.436060000000     0.711460000000    -0.326738   
O109     O      0.989600000000     0.998160000000     0.679320000000    -0.464069   
O110     O      0.989760000000     0.998440000000     0.742400000000    -0.598709   
O111     O      0.372590000000     0.450370000000     0.765410000000    -0.361258   
O112     O      0.411370000000     0.952220000000     0.801970000000    -0.353122   
O113     O      0.462510000000     0.372410000000     0.658820000000    -0.364147   
O114     O      0.958350000000     0.410760000000     0.621650000000    -0.35279    
O115     O      0.471980000000     0.373630000000     0.764910000000    -0.356436   
O116     O      0.966090000000     0.412070000000     0.801710000000    -0.351278   
O117     O      0.371370000000     0.450600000000     0.659000000000    -0.363415   
O118     O      0.409690000000     0.953410000000     0.621750000000    -0.35141    
O119     O      0.363050000000     0.406430000000     0.712010000000    -0.514039   
O120     O      0.345030000000     0.983810000000     0.712280000000    -0.325474   
O121     O      0.426760000000     0.353970000000     0.716370000000    -0.341841   
O122     O      0.005360000000     0.354170000000     0.708510000000    -0.522259   
O123     O      0.427360000000     0.420890000000     0.743170000000    -0.611773   
O124     O      0.426760000000     0.420550000000     0.680430000000    -0.469258   
O125     O      0.418650000000     0.991770000000     0.745340000000    -0.47149    
O126     O      0.997500000000     0.426740000000     0.677880000000    -0.617587   
O127     O      0.418380000000     0.991370000000     0.677990000000    -0.617108   
O128     O      0.998370000000     0.427170000000     0.745170000000    -0.473017   
O129     O      0.046930000000     0.157100000000     0.451680000000    -0.36218    
O130     O      0.007690000000     0.120230000000     0.956390000000    -0.356913   
O131     O      0.965090000000     0.262150000000     0.547390000000    -0.357926   
O132     O      0.464360000000     0.299250000000     0.508650000000    -0.354631   
O133     O      0.964360000000     0.156180000000     0.546910000000    -0.361633   
O134     O      0.463970000000     0.119570000000     0.508140000000    -0.353069   
O135     O      0.046780000000     0.263110000000     0.452730000000    -0.365294   
O136     O      0.007540000000     0.299800000000     0.956990000000    -0.35411    
O137     O      0.061140000000     0.209550000000     0.499290000000    -0.340926   
O138     O      0.068340000000     0.210050000000     0.920220000000    -0.513418   
O139     O      0.007320000000     0.209090000000     0.559300000000    -0.508995   
O140     O      0.430060000000     0.209320000000     0.572220000000    -0.332329   
O141     O      0.997420000000     0.178130000000     0.493250000000    -0.454354   
O142     O      0.997000000000     0.240810000000     0.493310000000    -0.604545   
O143     O      0.458210000000     0.263130000000     0.872810000000    -0.361517   
O144     O      0.956640000000     0.299800000000     0.911770000000    -0.351956   
O145     O      0.372800000000     0.156800000000     0.959240000000    -0.36181    
O146     O      0.412050000000     0.119860000000     0.458760000000    -0.354571   
O147     O      0.372550000000     0.262700000000     0.963480000000    -0.359271   
O148     O      0.411780000000     0.299610000000     0.461560000000    -0.353434   
O149     O      0.456190000000     0.157070000000     0.872410000000    -0.362617   
O150     O      0.958140000000     0.120210000000     0.911050000000    -0.351354   
O151     O      0.411300000000     0.210920000000     0.862080000000    -0.51634    
O152     O      0.989880000000     0.209810000000     0.847260000000    -0.325684   
O153     O      0.353460000000     0.211740000000     0.924920000000    -0.33616    
O154     O      0.354690000000     0.207740000000     0.504600000000    -0.516777   
O155     O      0.422550000000     0.240940000000     0.926520000000    -0.611991   
O156     O      0.422490000000     0.178550000000     0.926220000000    -0.468671   
O157     O      0.993880000000     0.243800000000     0.921950000000    -0.473113   
O158     O      0.426190000000     0.175890000000     0.498120000000    -0.624031   
O159     O      0.993760000000     0.176800000000     0.921920000000    -0.618509   
O160     O      0.426040000000     0.243480000000     0.498740000000    -0.474846   
O161     O      0.262530000000     0.047240000000     0.463370000000    -0.362204   
O162     O      0.299180000000     0.007970000000     0.964260000000    -0.355998   
O163     O      0.155530000000     0.966440000000     0.548560000000    -0.357941   
O164     O      0.119120000000     0.465840000000     0.509510000000    -0.353312   
O165     O      0.261700000000     0.965040000000     0.549860000000    -0.361756   
O166     O      0.298740000000     0.464320000000     0.511340000000    -0.351355   
O167     O      0.156690000000     0.047440000000     0.459370000000    -0.360287   
O168     O      0.119720000000     0.008100000000     0.961350000000    -0.355803   
O169     O      0.207570000000     0.066410000000     0.497940000000    -0.338877   
O170     O      0.211130000000     0.065860000000     0.918720000000    -0.516605   
O171     O      0.208650000000     0.005180000000     0.564060000000    -0.512379   
O172     O      0.208040000000     0.427890000000     0.573430000000    -0.33472    
O173     O      0.240320000000     0.997280000000     0.496450000000    -0.46417    
O174     O      0.178420000000     0.997190000000     0.495680000000    -0.607312   
O175     O      0.156840000000     0.457590000000     0.874560000000    -0.35889    
O176     O      0.119900000000     0.957290000000     0.913250000000    -0.35334    
O177     O      0.262140000000     0.372850000000     0.970540000000    -0.36114    
O178     O      0.298920000000     0.412140000000     0.466410000000    -0.354245   
O179     O      0.156170000000     0.372950000000     0.969830000000    -0.364498   
O180     O      0.119570000000     0.412200000000     0.465370000000    -0.352625   
O181     O      0.262680000000     0.456930000000     0.875570000000    -0.362906   
O182     O      0.299290000000     0.958770000000     0.914440000000    -0.353643   
O183     O      0.209790000000     0.410610000000     0.865490000000    -0.51098    
O184     O      0.210010000000     0.989510000000     0.849300000000    -0.323272   
O185     O      0.209550000000     0.358550000000     0.923260000000    -0.338202   
O186     O      0.209130000000     0.351480000000     0.502670000000    -0.51382    
O187     O      0.178270000000     0.422650000000     0.928970000000    -0.608983   
O188     O      0.241000000000     0.422460000000     0.929300000000    -0.45918    
O189     O      0.175740000000     0.994470000000     0.923880000000    -0.472084   
O190     O      0.242350000000     0.426240000000     0.500780000000    -0.623892   
O191     O      0.243070000000     0.994270000000     0.924680000000    -0.617556   
O192     O      0.175140000000     0.426030000000     0.500490000000    -0.475341   
O193     O      0.950220000000     0.545910000000     0.157590000000    -0.364975   
O194     O      0.454300000000     0.507280000000     0.120890000000    -0.354244   
O195     O      0.045850000000     0.466920000000     0.264010000000    -0.358945   
O196     O      0.006740000000     0.966060000000     0.301180000000    -0.354215   
O197     O      0.045180000000     0.463620000000     0.158070000000    -0.365803   
O198     O      0.005820000000     0.961770000000     0.121250000000    -0.356639   
O199     O      0.944360000000     0.545810000000     0.263860000000    -0.355594   
O200     O      0.451160000000     0.507790000000     0.301070000000    -0.353611   
O201     O      0.992150000000     0.563320000000     0.213800000000    -0.339595   
O202     O      0.412710000000     0.566020000000     0.208940000000    -0.512137   
O203     O      0.052380000000     0.513230000000     0.209330000000    -0.512866   
O204     O      0.072090000000     0.936620000000     0.211390000000    -0.326279   
O205     O      0.989990000000     0.498100000000     0.179300000000    -0.467139   
O206     O      0.990180000000     0.498380000000     0.242380000000    -0.605134   
O207     O      0.372070000000     0.950370000000     0.265400000000    -0.361067   
O208     O      0.411730000000     0.452420000000     0.302020000000    -0.353793   
O209     O      0.462280000000     0.872600000000     0.158780000000    -0.363814   
O210     O      0.958010000000     0.910990000000     0.121640000000    -0.353055   
O211     O      0.471650000000     0.873730000000     0.264910000000    -0.3565     
O212     O      0.965680000000     0.912110000000     0.301750000000    -0.351352   
O213     O      0.370970000000     0.950350000000     0.158970000000    -0.362816   
O214     O      0.409830000000     0.453630000000     0.121820000000    -0.351783   
O215     O      0.362900000000     0.906040000000     0.212110000000    -0.514055   
O216     O      0.345390000000     0.484200000000     0.212440000000    -0.330197   
O217     O      0.426930000000     0.853780000000     0.216260000000    -0.34166    
O218     O      0.005460000000     0.854620000000     0.208420000000    -0.522507   
O219     O      0.427060000000     0.920830000000     0.243180000000    -0.612004   
O220     O      0.426480000000     0.920530000000     0.180440000000    -0.469603   
O221     O      0.419040000000     0.491930000000     0.245360000000    -0.47447    
O222     O      0.997170000000     0.927070000000     0.177890000000    -0.618307   
O223     O      0.418720000000     0.491520000000     0.178030000000    -0.623896   
O224     O      0.998010000000     0.927420000000     0.245200000000    -0.473503   
O225     O      0.046580000000     0.657120000000     0.952760000000    -0.363598   
O226     O      0.008310000000     0.620240000000     0.455480000000    -0.356009   
O227     O      0.963870000000     0.762290000000     0.047220000000    -0.361176   
O228     O      0.463600000000     0.799350000000     0.008480000000    -0.354079   
O229     O      0.963500000000     0.656350000000     0.046910000000    -0.358593   
O230     O      0.463340000000     0.619650000000     0.008100000000    -0.352127   
O231     O      0.046490000000     0.763020000000     0.953220000000    -0.365196   
O232     O      0.007990000000     0.799790000000     0.456320000000    -0.354406   
O233     O      0.060540000000     0.709850000000     0.999910000000    -0.342682   
O234     O      0.068810000000     0.710180000000     0.419450000000    -0.513234   
O235     O      0.006360000000     0.708920000000     0.059160000000    -0.514496   
O236     O      0.428210000000     0.709420000000     0.071590000000    -0.333369   
O237     O      0.996700000000     0.678200000000     0.993430000000    -0.459527   
O238     O      0.996340000000     0.740850000000     0.993510000000    -0.605519   
O239     O      0.457900000000     0.763160000000     0.372850000000    -0.361511   
O240     O      0.956730000000     0.799790000000     0.411860000000    -0.351754   
O241     O      0.373440000000     0.656810000000     0.459910000000    -0.361516   
O242     O      0.411740000000     0.619830000000     0.958370000000    -0.354907   
O243     O      0.373240000000     0.762670000000     0.464500000000    -0.359096   
O244     O      0.411420000000     0.799640000000     0.960650000000    -0.353462   
O245     O      0.455940000000     0.657120000000     0.372400000000    -0.362831   
O246     O      0.958310000000     0.620240000000     0.411030000000    -0.351087   
O247     O      0.410740000000     0.710930000000     0.362710000000    -0.516392   
O248     O      0.989240000000     0.709880000000     0.346930000000    -0.325579   
O249     O      0.353510000000     0.711810000000     0.426360000000    -0.336003   
O250     O      0.353930000000     0.707940000000     0.003590000000    -0.515499   
O251     O      0.422760000000     0.740930000000     0.426960000000    -0.61205    
O252     O      0.422730000000     0.678540000000     0.426630000000    -0.468656   
O253     O      0.994070000000     0.743780000000     0.421650000000    -0.473093   
O254     O      0.425430000000     0.675930000000     0.997740000000    -0.625278   
O255     O      0.993970000000     0.676840000000     0.421570000000    -0.61854    
O256     O      0.425250000000     0.743570000000     0.998270000000    -0.475727   
O257     O      0.262480000000     0.546740000000     0.962680000000    -0.361891   
O258     O      0.299340000000     0.508150000000     0.464420000000    -0.353048   
O259     O      0.155450000000     0.467140000000     0.048910000000    -0.35827    
O260     O      0.119050000000     0.965100000000     0.009140000000    -0.351498   
O261     O      0.261670000000     0.465500000000     0.050200000000    -0.362466   
O262     O      0.298670000000     0.964000000000     0.011060000000    -0.349716   
O263     O      0.156700000000     0.546900000000     0.958860000000    -0.360376   
O264     O      0.119870000000     0.508660000000     0.461580000000    -0.352194   
O265     O      0.207660000000     0.566570000000     0.996680000000    -0.339941   
O266     O      0.211440000000     0.566160000000     0.418840000000    -0.51695    
O267     O      0.208680000000     0.506070000000     0.063800000000    -0.509773   
O268     O      0.208060000000     0.927240000000     0.072980000000    -0.334413   
O269     O      0.240280000000     0.497220000000     0.996360000000    -0.467596   
O270     O      0.178410000000     0.497140000000     0.995570000000    -0.614721   
O271     O      0.156800000000     0.958690000000     0.374220000000    -0.358431   
O272     O      0.119950000000     0.457910000000     0.413560000000    -0.353743   
O273     O      0.262280000000     0.873330000000     0.469080000000    -0.361509   
O274     O      0.298960000000     0.911880000000     0.966100000000    -0.354454   
O275     O      0.156420000000     0.873260000000     0.468170000000    -0.3647     
O276     O      0.119580000000     0.911790000000     0.965240000000    -0.352972   
O277     O      0.262740000000     0.959220000000     0.375080000000    -0.362643   
O278     O      0.299310000000     0.458390000000     0.414830000000    -0.354591   
O279     O      0.210300000000     0.912430000000     0.364430000000    -0.51073    
O280     O      0.210370000000     0.489780000000     0.349700000000    -0.328342   
O281     O      0.209830000000     0.859620000000     0.421500000000    -0.338157   
O282     O      0.209280000000     0.850770000000     0.001730000000    -0.511979   
O283     O      0.178400000000     0.923590000000     0.428100000000    -0.609377   
O284     O      0.241120000000     0.923430000000     0.428360000000    -0.459453   
O285     O      0.175840000000     0.494810000000     0.424180000000    -0.475088   
O286     O      0.242340000000     0.925830000000     0.000340000000    -0.623535   
O287     O      0.243200000000     0.494500000000     0.424910000000    -0.624043   
O288     O      0.175180000000     0.925510000000     0.000030000000    -0.475189   
O289     O      0.950650000000     0.545820000000     0.657500000000    -0.364831   
O290     O      0.454600000000     0.507190000000     0.620830000000    -0.35406    
O291     O      0.045960000000     0.466690000000     0.764000000000    -0.35888    
O292     O      0.006840000000     0.965920000000     0.801160000000    -0.354141   
O293     O      0.045300000000     0.463440000000     0.658060000000    -0.365778   
O294     O      0.005950000000     0.961600000000     0.621230000000    -0.356571   
O295     O      0.944630000000     0.545770000000     0.763780000000    -0.355655   
O296     O      0.451330000000     0.507760000000     0.801040000000    -0.353687   
O297     O      0.992210000000     0.563340000000     0.713770000000    -0.339411   
O298     O      0.412830000000     0.565910000000     0.708820000000    -0.512333   
O299     O      0.052490000000     0.513120000000     0.709340000000    -0.512891   
O300     O      0.072210000000     0.936520000000     0.711380000000    -0.326339   
O301     O      0.990130000000     0.497980000000     0.679250000000    -0.467056   
O302     O      0.990300000000     0.498300000000     0.742330000000    -0.604985   
O303     O      0.372170000000     0.950270000000     0.765360000000    -0.360965   
O304     O      0.411810000000     0.452370000000     0.801990000000    -0.353755   
O305     O      0.462580000000     0.872480000000     0.658790000000    -0.364196   
O306     O      0.958300000000     0.910830000000     0.621640000000    -0.352854   
O307     O      0.471910000000     0.873690000000     0.764890000000    -0.356626   
O308     O      0.965830000000     0.912070000000     0.801710000000    -0.351393   
O309     O      0.371080000000     0.950300000000     0.658920000000    -0.362764   
O310     O      0.409950000000     0.453560000000     0.621780000000    -0.351836   
O311     O      0.362930000000     0.906070000000     0.712040000000    -0.513846   
O312     O      0.345530000000     0.484270000000     0.712400000000    -0.330304   
O313     O      0.426740000000     0.853920000000     0.716280000000    -0.341915   
O314     O      0.005370000000     0.854370000000     0.708520000000    -0.522185   
O315     O      0.427120000000     0.920790000000     0.743160000000    -0.611958   
O316     O      0.426550000000     0.920470000000     0.680400000000    -0.469593   
O317     O      0.419160000000     0.491910000000     0.745310000000    -0.47447    
O318     O      0.997280000000     0.926950000000     0.677890000000    -0.618257   
O319     O      0.418860000000     0.491470000000     0.677970000000    -0.62394    
O320     O      0.998090000000     0.927340000000     0.745190000000    -0.473448   
O321     O      0.047040000000     0.657110000000     0.451470000000    -0.362115   
O322     O      0.007810000000     0.620250000000     0.956260000000    -0.356751   
O323     O      0.965250000000     0.762180000000     0.547330000000    -0.357674   
O324     O      0.464480000000     0.799260000000     0.508570000000    -0.354594   
O325     O      0.964640000000     0.656180000000     0.546840000000    -0.361351   
O326     O      0.464190000000     0.619580000000     0.508070000000    -0.352971   
O327     O      0.046860000000     0.763080000000     0.452400000000    -0.365549   
O328     O      0.007630000000     0.799780000000     0.956770000000    -0.354213   
O329     O      0.061220000000     0.709580000000     0.499220000000    -0.340997   
O330     O      0.068490000000     0.710020000000     0.920150000000    -0.513536   
O331     O      0.007420000000     0.709150000000     0.559320000000    -0.508799   
O332     O      0.430250000000     0.709300000000     0.572180000000    -0.332348   
O333     O      0.997550000000     0.678140000000     0.493170000000    -0.454329   
O334     O      0.997140000000     0.740820000000     0.493230000000    -0.604483   
O335     O      0.458240000000     0.763120000000     0.872750000000    -0.361598   
O336     O      0.956690000000     0.799780000000     0.911710000000    -0.351913   
O337     O      0.372940000000     0.656760000000     0.959190000000    -0.361429   
O338     O      0.412190000000     0.619830000000     0.458730000000    -0.354317   
O339     O      0.372680000000     0.762710000000     0.963300000000    -0.359256   
O340     O      0.411920000000     0.799620000000     0.461420000000    -0.353507   
O341     O      0.456330000000     0.657070000000     0.872350000000    -0.362824   
O342     O      0.958280000000     0.620220000000     0.911000000000    -0.351317   
O343     O      0.411300000000     0.710860000000     0.862100000000    -0.516415   
O344     O      0.989850000000     0.709820000000     0.847160000000    -0.325615   
O345     O      0.353360000000     0.711660000000     0.925150000000    -0.335702   
O346     O      0.354930000000     0.707770000000     0.504770000000    -0.517037   
O347     O      0.422620000000     0.740910000000     0.926500000000    -0.612048   
O348     O      0.422570000000     0.678540000000     0.926210000000    -0.468689   
O349     O      0.993950000000     0.743790000000     0.921860000000    -0.473118   
O350     O      0.426340000000     0.675880000000     0.498120000000    -0.624151   
O351     O      0.993840000000     0.676800000000     0.921840000000    -0.618369   
O352     O      0.426180000000     0.743490000000     0.498720000000    -0.474794   
O353     O      0.262630000000     0.547120000000     0.463100000000    -0.361792   
O354     O      0.299250000000     0.507820000000     0.964200000000    -0.352829   
O355     O      0.155520000000     0.467180000000     0.548930000000    -0.358486   
O356     O      0.119120000000     0.965300000000     0.509150000000    -0.352457   
O357     O      0.261740000000     0.465500000000     0.550200000000    -0.362368   
O358     O      0.298730000000     0.964120000000     0.511030000000    -0.350516   
O359     O      0.156790000000     0.547420000000     0.459110000000    -0.359966   
O360     O      0.119790000000     0.508140000000     0.961400000000    -0.352532   
O361     O      0.207720000000     0.566720000000     0.497360000000    -0.338893   
O362     O      0.211270000000     0.565410000000     0.918210000000    -0.516811   
O363     O      0.208760000000     0.505960000000     0.564050000000    -0.509805   
O364     O      0.208130000000     0.927050000000     0.572760000000    -0.334341   
O365     O      0.240350000000     0.497460000000     0.496540000000    -0.467058   
O366     O      0.178480000000     0.497430000000     0.495750000000    -0.613565   
O367     O      0.156790000000     0.957850000000     0.874230000000    -0.35837    
O368     O      0.119920000000     0.457260000000     0.913550000000    -0.353689   
O369     O      0.262250000000     0.872940000000     0.969660000000    -0.361336   
O370     O      0.299010000000     0.912260000000     0.465650000000    -0.354346   
O371     O      0.156310000000     0.872910000000     0.968990000000    -0.364543   
O372     O      0.119660000000     0.912150000000     0.464780000000    -0.352491   
O373     O      0.262710000000     0.958390000000     0.875130000000    -0.362607   
O374     O      0.299280000000     0.457780000000     0.914870000000    -0.354435   
O375     O      0.210280000000     0.911380000000     0.864800000000    -0.510981   
O376     O      0.210350000000     0.488650000000     0.849500000000    -0.328083   
O377     O      0.209690000000     0.859020000000     0.922040000000    -0.33818    
O378     O      0.209270000000     0.851080000000     0.501200000000    -0.513949   
O379     O      0.178340000000     0.922930000000     0.928320000000    -0.609206   
O380     O      0.241090000000     0.922810000000     0.928620000000    -0.459371   
O381     O      0.175790000000     0.494150000000     0.923990000000    -0.474963   
O382     O      0.242410000000     0.926040000000     0.500120000000    -0.624469   
O383     O      0.243140000000     0.493870000000     0.924750000000    -0.624093   
O384     O      0.175220000000     0.925750000000     0.499820000000    -0.476004   
O385     O      0.449210000000     0.046230000000     0.157690000000    -0.365303   
O386     O      0.954050000000     0.007050000000     0.120900000000    -0.356855   
O387     O      0.545420000000     0.967490000000     0.264050000000    -0.358256   
O388     O      0.507050000000     0.466350000000     0.301180000000    -0.352951   
O389     O      0.544720000000     0.964860000000     0.158180000000    -0.365072   
O390     O      0.506200000000     0.461730000000     0.121250000000    -0.354583   
O391     O      0.443410000000     0.045940000000     0.264030000000    -0.356001   
O392     O      0.950960000000     0.007640000000     0.301100000000    -0.355991   
O393     O      0.491050000000     0.063830000000     0.213920000000    -0.343814   
O394     O      0.912090000000     0.065630000000     0.208960000000    -0.511839   
O395     O      0.551560000000     0.014210000000     0.209730000000    -0.515805   
O396     O      0.572490000000     0.436810000000     0.211490000000    -0.327261   
O397     O      0.489330000000     0.998640000000     0.179400000000    -0.46649    
O398     O      0.489490000000     0.998860000000     0.242510000000    -0.60388    
O399     O      0.872510000000     0.450410000000     0.265450000000    -0.361483   
O400     O      0.911300000000     0.952170000000     0.302010000000    -0.35328    
O401     O      0.961470000000     0.372290000000     0.158780000000    -0.362802   
O402     O      0.458490000000     0.411140000000     0.121690000000    -0.353558   
O403     O      0.971700000000     0.373430000000     0.264930000000    -0.355845   
O404     O      0.465850000000     0.412320000000     0.301760000000    -0.351803   
O405     O      0.871240000000     0.450660000000     0.159040000000    -0.363572   
O406     O      0.909540000000     0.953400000000     0.121800000000    -0.351254   
O407     O      0.862860000000     0.406450000000     0.212060000000    -0.514166   
O408     O      0.844970000000     0.983850000000     0.212350000000    -0.32538    
O409     O      0.926840000000     0.353520000000     0.216600000000    -0.341278   
O410     O      0.505700000000     0.354750000000     0.208650000000    -0.515203   
O411     O      0.927230000000     0.420770000000     0.243190000000    -0.612331   
O412     O      0.926590000000     0.420450000000     0.180480000000    -0.469674   
O413     O      0.918640000000     0.991680000000     0.245370000000    -0.471831   
O414     O      0.497490000000     0.427250000000     0.177920000000    -0.623151   
O415     O      0.918330000000     0.991280000000     0.178020000000    -0.617397   
O416     O      0.498370000000     0.427600000000     0.245220000000    -0.475622   
O417     O      0.546460000000     0.157030000000     0.952930000000    -0.363464   
O418     O      0.508170000000     0.120170000000     0.455680000000    -0.354209   
O419     O      0.464480000000     0.262370000000     0.047530000000    -0.361324   
O420     O      0.962960000000     0.299290000000     0.008370000000    -0.353059   
O421     O      0.463740000000     0.156370000000     0.047380000000    -0.358711   
O422     O      0.962760000000     0.119630000000     0.007780000000    -0.351568   
O423     O      0.546470000000     0.262970000000     0.953600000000    -0.364671   
O424     O      0.508000000000     0.299760000000     0.456640000000    -0.350972   
O425     O      0.560760000000     0.209680000000     0.999850000000    -0.34275    
O426     O      0.568420000000     0.210090000000     0.419120000000    -0.513926   
O427     O      0.506430000000     0.208850000000     0.059670000000    -0.512576   
O428     O      0.927740000000     0.209280000000     0.071270000000    -0.332571   
O429     O      0.496730000000     0.178200000000     0.993730000000    -0.462077   
O430     O      0.496410000000     0.240800000000     0.993760000000    -0.610897   
O431     O      0.957750000000     0.263220000000     0.372610000000    -0.361206   
O432     O      0.456880000000     0.299790000000     0.412200000000    -0.352412   
O433     O      0.873250000000     0.156790000000     0.459270000000    -0.362219   
O434     O      0.911590000000     0.119840000000     0.957790000000    -0.354901   
O435     O      0.872990000000     0.262620000000     0.464080000000    -0.359114   
O436     O      0.911160000000     0.299600000000     0.960400000000    -0.353404   
O437     O      0.956570000000     0.157120000000     0.372050000000    -0.362106   
O438     O      0.457690000000     0.120230000000     0.411460000000    -0.35189    
O439     O      0.911150000000     0.210660000000     0.362130000000    -0.516475   
O440     O      0.488740000000     0.209570000000     0.347200000000    -0.329745   
O441     O      0.853860000000     0.211900000000     0.425070000000    -0.336564   
O442     O      0.853380000000     0.207820000000     0.002520000000    -0.515076   
O443     O      0.922770000000     0.240950000000     0.426490000000    -0.612404   
O444     O      0.922770000000     0.178520000000     0.426100000000    -0.469056   
O445     O      0.493910000000     0.243750000000     0.421870000000    -0.475364   
O446     O      0.925080000000     0.175910000000     0.997210000000    -0.625818   
O447     O      0.493720000000     0.176780000000     0.421810000000    -0.623525   
O448     O      0.924880000000     0.243500000000     0.997800000000    -0.476088   
O449     O      0.762380000000     0.046840000000     0.962680000000    -0.362428   
O450     O      0.799290000000     0.008290000000     0.464340000000    -0.356158   
O451     O      0.655460000000     0.966580000000     0.048530000000    -0.357665   
O452     O      0.619070000000     0.465690000000     0.009460000000    -0.352195   
O453     O      0.761630000000     0.965150000000     0.049840000000    -0.361936   
O454     O      0.798680000000     0.464200000000     0.011320000000    -0.350864   
O455     O      0.656580000000     0.046880000000     0.958960000000    -0.360671   
O456     O      0.619810000000     0.008600000000     0.461500000000    -0.355325   
O457     O      0.707540000000     0.066220000000     0.997180000000    -0.339997   
O458     O      0.711260000000     0.066630000000     0.419360000000    -0.51614    
O459     O      0.708590000000     0.005390000000     0.063770000000    -0.512438   
O460     O      0.707970000000     0.428110000000     0.073610000000    -0.335027   
O461     O      0.740240000000     0.997060000000     0.996210000000    -0.464785   
O462     O      0.678350000000     0.996930000000     0.995430000000    -0.608522   
O463     O      0.656830000000     0.458440000000     0.374550000000    -0.358952   
O464     O      0.619920000000     0.957970000000     0.413240000000    -0.353398   
O465     O      0.762150000000     0.373230000000     0.469950000000    -0.361431   
O466     O      0.798870000000     0.411710000000     0.966800000000    -0.354366   
O467     O      0.656280000000     0.373280000000     0.469060000000    -0.364509   
O468     O      0.619490000000     0.411810000000     0.965840000000    -0.35298    
O469     O      0.762690000000     0.457670000000     0.375510000000    -0.362908   
O470     O      0.799320000000     0.959350000000     0.414370000000    -0.353514   
O471     O      0.709740000000     0.411570000000     0.365150000000    -0.511246   
O472     O      0.710020000000     0.990590000000     0.349450000000    -0.323212   
O473     O      0.709650000000     0.359110000000     0.422810000000    -0.338138   
O474     O      0.709120000000     0.351140000000     0.003170000000    -0.51215    
O475     O      0.678310000000     0.423270000000     0.428770000000    -0.609119   
O476     O      0.741010000000     0.423050000000     0.429060000000    -0.459366   
O477     O      0.675790000000     0.995110000000     0.424040000000    -0.472062   
O478     O      0.742290000000     0.426030000000     0.000970000000    -0.623088   
O479     O      0.743120000000     0.994870000000     0.424800000000    -0.617464   
O480     O      0.675100000000     0.425800000000     0.000690000000    -0.474727   
O481     O      0.449630000000     0.046160000000     0.657630000000    -0.365063   
O482     O      0.954370000000     0.006940000000     0.620820000000    -0.356726   
O483     O      0.545530000000     0.967210000000     0.764050000000    -0.358302   
O484     O      0.507140000000     0.466190000000     0.801170000000    -0.352798   
O485     O      0.544840000000     0.964640000000     0.658180000000    -0.365168   
O486     O      0.506310000000     0.461570000000     0.621240000000    -0.354615   
O487     O      0.443710000000     0.045900000000     0.763970000000    -0.356056   
O488     O      0.951130000000     0.007610000000     0.801040000000    -0.356094   
O489     O      0.491160000000     0.063820000000     0.713900000000    -0.34372    
O490     O      0.912170000000     0.065470000000     0.708800000000    -0.511922   
O491     O      0.551690000000     0.014070000000     0.709750000000    -0.516047   
O492     O      0.572590000000     0.436660000000     0.711460000000    -0.327072   
O493     O      0.489480000000     0.998520000000     0.679360000000    -0.46648    
O494     O      0.489620000000     0.998770000000     0.742480000000    -0.604121   
O495     O      0.872610000000     0.450300000000     0.765400000000    -0.361359   
O496     O      0.911400000000     0.952100000000     0.801960000000    -0.35321    
O497     O      0.961900000000     0.372160000000     0.658800000000    -0.363119   
O498     O      0.458690000000     0.411010000000     0.621690000000    -0.353349   
O499     O      0.971980000000     0.373400000000     0.764910000000    -0.355927   
O500     O      0.465990000000     0.412270000000     0.801730000000    -0.351882   
O501     O      0.871360000000     0.450570000000     0.658990000000    -0.363451   
O502     O      0.909680000000     0.953300000000     0.621740000000    -0.351342   
O503     O      0.862920000000     0.406440000000     0.711990000000    -0.513908   
O504     O      0.845120000000     0.983870000000     0.712290000000    -0.325489   
O505     O      0.926660000000     0.353690000000     0.716590000000    -0.34174    
O506     O      0.505560000000     0.354500000000     0.708700000000    -0.515292   
O507     O      0.927310000000     0.420730000000     0.743170000000    -0.61236    
O508     O      0.926680000000     0.420370000000     0.680440000000    -0.469749   
O509     O      0.918760000000     0.991640000000     0.745310000000    -0.471824   
O510     O      0.497560000000     0.427130000000     0.677920000000    -0.623083   
O511     O      0.918470000000     0.991210000000     0.677950000000    -0.617631   
O512     O      0.498430000000     0.427510000000     0.745200000000    -0.4756     
O513     O      0.546910000000     0.157020000000     0.451620000000    -0.36594    
O514     O      0.507670000000     0.120180000000     0.956490000000    -0.354136   
O515     O      0.465620000000     0.262270000000     0.547600000000    -0.361268   
O516     O      0.963910000000     0.299190000000     0.508490000000    -0.353598   
O517     O      0.464860000000     0.156260000000     0.547380000000    -0.359419   
O518     O      0.963630000000     0.119480000000     0.507710000000    -0.352401   
O519     O      0.546870000000     0.263040000000     0.452730000000    -0.361532   
O520     O      0.507630000000     0.299740000000     0.957120000000    -0.351163   
O521     O      0.561530000000     0.209650000000     0.498990000000    -0.342534   
O522     O      0.568210000000     0.209970000000     0.920060000000    -0.514358   
O523     O      0.508350000000     0.208710000000     0.558770000000    -0.511962   
O524     O      0.929120000000     0.209140000000     0.571520000000    -0.332405   
O525     O      0.497620000000     0.178110000000     0.493370000000    -0.462015   
O526     O      0.497260000000     0.240780000000     0.493450000000    -0.609062   
O527     O      0.958040000000     0.263190000000     0.872500000000    -0.361349   
O528     O      0.456880000000     0.299770000000     0.912070000000    -0.352339   
O529     O      0.872760000000     0.156740000000     0.958590000000    -0.362128   
O530     O      0.912030000000     0.119850000000     0.458150000000    -0.354455   
O531     O      0.872440000000     0.262650000000     0.962940000000    -0.359129   
O532     O      0.911670000000     0.299590000000     0.461160000000    -0.353278   
O533     O      0.956900000000     0.157080000000     0.871990000000    -0.362256   
O534     O      0.457680000000     0.120210000000     0.911460000000    -0.352038   
O535     O      0.911640000000     0.210610000000     0.861540000000    -0.516359   
O536     O      0.489450000000     0.209500000000     0.847470000000    -0.329755   
O537     O      0.853720000000     0.211750000000     0.923920000000    -0.336486   
O538     O      0.854310000000     0.207640000000     0.503630000000    -0.516885   
O539     O      0.922620000000     0.240930000000     0.926040000000    -0.61207    
O540     O      0.922590000000     0.178520000000     0.925680000000    -0.469069   
O541     O      0.493810000000     0.243740000000     0.922130000000    -0.475593   
O542     O      0.925950000000     0.175850000000     0.497590000000    -0.624323   
O543     O      0.493620000000     0.176730000000     0.922130000000    -0.623633   
O544     O      0.925750000000     0.243440000000     0.498250000000    -0.475466   
O545     O      0.762540000000     0.047240000000     0.463130000000    -0.362323   
O546     O      0.799180000000     0.007950000000     0.964100000000    -0.356042   
O547     O      0.655550000000     0.966550000000     0.548550000000    -0.357649   
O548     O      0.619120000000     0.465890000000     0.509500000000    -0.353146   
O549     O      0.761710000000     0.965090000000     0.549830000000    -0.361921   
O550     O      0.798740000000     0.464330000000     0.511310000000    -0.351559   
O551     O      0.656680000000     0.047420000000     0.459270000000    -0.360384   
O552     O      0.619720000000     0.008060000000     0.961290000000    -0.355686   
O553     O      0.707610000000     0.066330000000     0.497960000000    -0.339344   
O554     O      0.711090000000     0.065830000000     0.918640000000    -0.516304   
O555     O      0.708690000000     0.005210000000     0.564040000000    -0.51252    
O556     O      0.708020000000     0.427910000000     0.573410000000    -0.334738   
O557     O      0.740330000000     0.997290000000     0.496410000000    -0.464193   
O558     O      0.678420000000     0.997190000000     0.495640000000    -0.606974   
O559     O      0.656820000000     0.457560000000     0.874550000000    -0.358814   
O560     O      0.619880000000     0.957260000000     0.913240000000    -0.353259   
O561     O      0.762120000000     0.372820000000     0.970530000000    -0.36122    
O562     O      0.798910000000     0.412110000000     0.466360000000    -0.354271   
O563     O      0.656180000000     0.372920000000     0.969890000000    -0.364495   
O564     O      0.619560000000     0.412180000000     0.465380000000    -0.352458   
O565     O      0.762670000000     0.456810000000     0.875540000000    -0.362827   
O566     O      0.799280000000     0.958690000000     0.914420000000    -0.353487   
O567     O      0.709730000000     0.410470000000     0.865530000000    -0.51089    
O568     O      0.710010000000     0.989340000000     0.849230000000    -0.323199   
O569     O      0.709520000000     0.358480000000     0.923350000000    -0.338011   
O570     O      0.709100000000     0.351450000000     0.502630000000    -0.513932   
O571     O      0.678260000000     0.422590000000     0.928990000000    -0.609004   
O572     O      0.740990000000     0.422400000000     0.929310000000    -0.45914    
O573     O      0.675730000000     0.994400000000     0.923830000000    -0.472063   
O574     O      0.742350000000     0.426250000000     0.500760000000    -0.623923   
O575     O      0.743050000000     0.994200000000     0.924620000000    -0.617419   
O576     O      0.675140000000     0.426040000000     0.500490000000    -0.475416   
O577     O      0.449820000000     0.546190000000     0.157630000000    -0.365239   
O578     O      0.954600000000     0.506990000000     0.120850000000    -0.353749   
O579     O      0.545810000000     0.467330000000     0.264060000000    -0.35869    
O580     O      0.506700000000     0.966320000000     0.301220000000    -0.351633   
O581     O      0.545160000000     0.464170000000     0.158110000000    -0.365521   
O582     O      0.505810000000     0.962230000000     0.121280000000    -0.353845   
O583     O      0.443960000000     0.545950000000     0.263940000000    -0.355584   
O584     O      0.951420000000     0.507650000000     0.301030000000    -0.352693   
O585     O      0.491890000000     0.563610000000     0.213860000000    -0.344378   
O586     O      0.912980000000     0.565830000000     0.208860000000    -0.512182   
O587     O      0.552150000000     0.513810000000     0.209450000000    -0.513123   
O588     O      0.572160000000     0.937260000000     0.211400000000    -0.326697   
O589     O      0.489860000000     0.498470000000     0.179330000000    -0.469501   
O590     O      0.490040000000     0.498720000000     0.242440000000    -0.610318   
O591     O      0.872090000000     0.950320000000     0.265410000000    -0.361304   
O592     O      0.911750000000     0.452300000000     0.302020000000    -0.353982   
O593     O      0.961530000000     0.872360000000     0.158750000000    -0.362945   
O594     O      0.458430000000     0.911220000000     0.121670000000    -0.353422   
O595     O      0.971630000000     0.873490000000     0.264900000000    -0.355812   
O596     O      0.465580000000     0.912320000000     0.301760000000    -0.351961   
O597     O      0.870940000000     0.950360000000     0.158980000000    -0.362891   
O598     O      0.909810000000     0.453560000000     0.121820000000    -0.351811   
O599     O      0.862740000000     0.906080000000     0.212110000000    -0.514466   
O600     O      0.845490000000     0.484320000000     0.212470000000    -0.330279   
O601     O      0.926810000000     0.853480000000     0.216520000000    -0.341444   
O602     O      0.505700000000     0.854950000000     0.208660000000    -0.515524   
O603     O      0.926980000000     0.920680000000     0.243180000000    -0.612239   
O604     O      0.926370000000     0.920370000000     0.180450000000    -0.469873   
O605     O      0.919160000000     0.491820000000     0.245340000000    -0.474864   
O606     O      0.497250000000     0.927460000000     0.177930000000    -0.623616   
O607     O      0.918820000000     0.491370000000     0.178010000000    -0.624081   
O608     O      0.498090000000     0.927770000000     0.245230000000    -0.476046   
O609     O      0.546570000000     0.657040000000     0.952700000000    -0.363486   
O610     O      0.508280000000     0.620180000000     0.455560000000    -0.354001   
O611     O      0.464640000000     0.762400000000     0.047470000000    -0.361147   
O612     O      0.963080000000     0.799300000000     0.008300000000    -0.353138   
O613     O      0.464020000000     0.656370000000     0.047310000000    -0.358511   
O614     O      0.962990000000     0.619630000000     0.007710000000    -0.351617   
O615     O      0.546560000000     0.762950000000     0.953250000000    -0.364941   
O616     O      0.508090000000     0.799740000000     0.456420000000    -0.35112    
O617     O      0.560830000000     0.709730000000     0.999770000000    -0.343104   
O618     O      0.568550000000     0.710050000000     0.419040000000    -0.513733   
O619     O      0.506580000000     0.708910000000     0.059640000000    -0.512231   
O620     O      0.927910000000     0.709260000000     0.071220000000    -0.332749   
O621     O      0.496870000000     0.678210000000     0.993660000000    -0.461979   
O622     O      0.496560000000     0.740810000000     0.993670000000    -0.610826   
O623     O      0.957800000000     0.763210000000     0.372550000000    -0.361235   
O624     O      0.456930000000     0.799770000000     0.412140000000    -0.352283   
O625     O      0.873390000000     0.656760000000     0.459200000000    -0.361836   
O626     O      0.911730000000     0.619800000000     0.957760000000    -0.354829   
O627     O      0.873120000000     0.762630000000     0.463880000000    -0.359095   
O628     O      0.911300000000     0.799610000000     0.960250000000    -0.353385   
O629     O      0.956720000000     0.657130000000     0.372000000000    -0.362269   
O630     O      0.457810000000     0.620230000000     0.411410000000    -0.351758   
O631     O      0.911170000000     0.710610000000     0.362130000000    -0.516508   
O632     O      0.488700000000     0.709580000000     0.347100000000    -0.329761   
O633     O      0.853770000000     0.711820000000     0.425280000000    -0.33634    
O634     O      0.853600000000     0.707830000000     0.002670000000    -0.515564   
O635     O      0.922850000000     0.740920000000     0.426460000000    -0.61244    
O636     O      0.922850000000     0.678510000000     0.426080000000    -0.469003   
O637     O      0.493970000000     0.743740000000     0.421780000000    -0.475304   
O638     O      0.925230000000     0.675900000000     0.997200000000    -0.625781   
O639     O      0.493800000000     0.676780000000     0.421720000000    -0.623843   
O640     O      0.925020000000     0.743500000000     0.997780000000    -0.476134   
O641     O      0.762480000000     0.546720000000     0.962420000000    -0.361976   
O642     O      0.799350000000     0.508150000000     0.464270000000    -0.352995   
O643     O      0.655460000000     0.467290000000     0.048880000000    -0.358189   
O644     O      0.619060000000     0.965160000000     0.009130000000    -0.351497   
O645     O      0.761670000000     0.465570000000     0.050160000000    -0.362476   
O646     O      0.798670000000     0.964020000000     0.011030000000    -0.349855   
O647     O      0.656690000000     0.546860000000     0.958700000000    -0.360282   
O648     O      0.619870000000     0.508650000000     0.461550000000    -0.35208    
O649     O      0.707680000000     0.566500000000     0.996620000000    -0.340078   
O650     O      0.711390000000     0.566190000000     0.418830000000    -0.516994   
O651     O      0.708710000000     0.506130000000     0.063750000000    -0.509935   
O652     O      0.708060000000     0.927310000000     0.072980000000    -0.334327   
O653     O      0.740280000000     0.497220000000     0.996290000000    -0.467766   
O654     O      0.678410000000     0.497150000000     0.995500000000    -0.614742   
O655     O      0.656780000000     0.958710000000     0.374210000000    -0.358294   
O656     O      0.619930000000     0.457930000000     0.413550000000    -0.353716   
O657     O      0.762260000000     0.873310000000     0.469020000000    -0.361573   
O658     O      0.798940000000     0.911840000000     0.966070000000    -0.354512   
O659     O      0.656430000000     0.873240000000     0.468180000000    -0.364723   
O660     O      0.619590000000     0.911750000000     0.965280000000    -0.352992   
O661     O      0.762720000000     0.959160000000     0.375060000000    -0.362496   
O662     O      0.799300000000     0.458350000000     0.414800000000    -0.354477   
O663     O      0.710240000000     0.912360000000     0.364450000000    -0.510803   
O664     O      0.710370000000     0.489710000000     0.349650000000    -0.328369   
O665     O      0.709790000000     0.859580000000     0.421540000000    -0.338088   
O666     O      0.709300000000     0.850810000000     0.001840000000    -0.511729   
O667     O      0.678390000000     0.923560000000     0.428100000000    -0.609248   
O668     O      0.741100000000     0.923410000000     0.428360000000    -0.459516   
O669     O      0.675830000000     0.494790000000     0.424150000000    -0.475065   
O670     O      0.742340000000     0.925850000000     0.000340000000    -0.623479   
O671     O      0.743180000000     0.494470000000     0.424870000000    -0.624171   
O672     O      0.675180000000     0.925520000000     0.000050000000    -0.475191   
O673     O      0.450240000000     0.546120000000     0.657570000000    -0.365041   
O674     O      0.954890000000     0.506880000000     0.620770000000    -0.353554   
O675     O      0.545920000000     0.467040000000     0.764050000000    -0.358607   
O676     O      0.506790000000     0.966150000000     0.801200000000    -0.35158    
O677     O      0.545270000000     0.463950000000     0.658110000000    -0.3654     
O678     O      0.505940000000     0.962070000000     0.621270000000    -0.354043   
O679     O      0.444260000000     0.545920000000     0.763890000000    -0.355647   
O680     O      0.951570000000     0.507630000000     0.800970000000    -0.352741   
O681     O      0.492010000000     0.563590000000     0.713840000000    -0.344212   
O682     O      0.913040000000     0.565680000000     0.708700000000    -0.512489   
O683     O      0.552280000000     0.513660000000     0.709470000000    -0.513626   
O684     O      0.572270000000     0.937130000000     0.711380000000    -0.326605   
O685     O      0.490010000000     0.498340000000     0.679300000000    -0.469614   
O686     O      0.490170000000     0.498630000000     0.742410000000    -0.610474   
O687     O      0.872190000000     0.950210000000     0.765350000000    -0.361061   
O688     O      0.911830000000     0.452240000000     0.801980000000    -0.35401    
O689     O      0.961960000000     0.872220000000     0.658760000000    -0.363121   
O690     O      0.458650000000     0.911080000000     0.621670000000    -0.353346   
O691     O      0.971910000000     0.873450000000     0.764880000000    -0.355867   
O692     O      0.465730000000     0.912270000000     0.801730000000    -0.351925   
O693     O      0.871070000000     0.950280000000     0.658920000000    -0.362823   
O694     O      0.909940000000     0.453460000000     0.621770000000    -0.351928   
O695     O      0.862810000000     0.906070000000     0.712030000000    -0.513895   
O696     O      0.845620000000     0.484320000000     0.712410000000    -0.330256   
O697     O      0.926640000000     0.853630000000     0.716510000000    -0.341717   
O698     O      0.505570000000     0.854700000000     0.708710000000    -0.515185   
O699     O      0.927060000000     0.920630000000     0.743150000000    -0.612281   
O700     O      0.926470000000     0.920290000000     0.680410000000    -0.469966   
O701     O      0.919270000000     0.491780000000     0.745280000000    -0.474821   
O702     O      0.497340000000     0.927350000000     0.677930000000    -0.6236     
O703     O      0.918960000000     0.491300000000     0.677930000000    -0.623926   
O704     O      0.498150000000     0.927680000000     0.745210000000    -0.476052   
O705     O      0.547010000000     0.657030000000     0.451390000000    -0.366179   
O706     O      0.507790000000     0.620200000000     0.956370000000    -0.354098   
O707     O      0.465790000000     0.762300000000     0.547540000000    -0.36109    
O708     O      0.964030000000     0.799210000000     0.508410000000    -0.353497   
O709     O      0.465140000000     0.656260000000     0.547310000000    -0.359247   
O710     O      0.963850000000     0.619480000000     0.507630000000    -0.352353   
O711     O      0.546950000000     0.763020000000     0.452370000000    -0.361346   
O712     O      0.507730000000     0.799720000000     0.956900000000    -0.351333   
O713     O      0.561600000000     0.709710000000     0.498890000000    -0.342883   
O714     O      0.568350000000     0.709940000000     0.920000000000    -0.514162   
O715     O      0.508510000000     0.708760000000     0.558730000000    -0.511858   
O716     O      0.929240000000     0.709120000000     0.571450000000    -0.332661   
O717     O      0.497760000000     0.678120000000     0.493290000000    -0.462138   
O718     O      0.497410000000     0.740790000000     0.493360000000    -0.609143   
O719     O      0.958070000000     0.763170000000     0.872430000000    -0.361323   
O720     O      0.456930000000     0.799750000000     0.912010000000    -0.352245   
O721     O      0.872890000000     0.656700000000     0.958550000000    -0.361776   
O722     O      0.912170000000     0.619820000000     0.458110000000    -0.354393   
O723     O      0.872570000000     0.762660000000     0.962770000000    -0.359109   
O724     O      0.911810000000     0.799600000000     0.461000000000    -0.353326   
O725     O      0.957040000000     0.657080000000     0.871940000000    -0.36235    
O726     O      0.457810000000     0.620210000000     0.911410000000    -0.351941   
O727     O      0.911640000000     0.710550000000     0.861560000000    -0.516435   
O728     O      0.489430000000     0.709510000000     0.847380000000    -0.329945   
O729     O      0.853630000000     0.711660000000     0.924140000000    -0.336358   
O730     O      0.854530000000     0.707660000000     0.503760000000    -0.517081   
O731     O      0.922690000000     0.740900000000     0.926020000000    -0.612055   
O732     O      0.922670000000     0.678510000000     0.925660000000    -0.469037   
O733     O      0.493880000000     0.743730000000     0.922050000000    -0.475572   
O734     O      0.926090000000     0.675850000000     0.497570000000    -0.624185   
O735     O      0.493700000000     0.676740000000     0.922040000000    -0.623876   
O736     O      0.925880000000     0.743450000000     0.498220000000    -0.475482   
O737     O      0.762640000000     0.547130000000     0.462850000000    -0.36187    
O738     O      0.799250000000     0.507800000000     0.964040000000    -0.352764   
O739     O      0.655530000000     0.467290000000     0.548910000000    -0.358324   
O740     O      0.619120000000     0.965340000000     0.509150000000    -0.352274   
O741     O      0.761740000000     0.465530000000     0.550170000000    -0.362536   
O742     O      0.798740000000     0.964130000000     0.511000000000    -0.350516   
O743     O      0.656790000000     0.547410000000     0.459010000000    -0.360008   
O744     O      0.619780000000     0.508110000000     0.961330000000    -0.352459   
O745     O      0.707750000000     0.566630000000     0.497400000000    -0.339434   
O746     O      0.711240000000     0.565380000000     0.918120000000    -0.516772   
O747     O      0.708800000000     0.505970000000     0.564030000000    -0.509696   
O748     O      0.708120000000     0.927080000000     0.572740000000    -0.334359   
O749     O      0.740360000000     0.497470000000     0.496490000000    -0.467153   
O750     O      0.678480000000     0.497430000000     0.495710000000    -0.613205   
O751     O      0.656760000000     0.957830000000     0.874220000000    -0.358327   
O752     O      0.619910000000     0.457220000000     0.913540000000    -0.353635   
O753     O      0.762230000000     0.872910000000     0.969650000000    -0.361447   
O754     O      0.799000000000     0.912240000000     0.465600000000    -0.354296   
O755     O      0.656320000000     0.872880000000     0.969050000000    -0.364664   
O756     O      0.619670000000     0.912120000000     0.464790000000    -0.352505   
O757     O      0.762690000000     0.958280000000     0.875100000000    -0.362393   
O758     O      0.799270000000     0.457700000000     0.914840000000    -0.354503   
O759     O      0.710220000000     0.911240000000     0.864850000000    -0.510608   
O760     O      0.710350000000     0.488480000000     0.849430000000    -0.32824    
O761     O      0.709650000000     0.858940000000     0.922120000000    -0.338111   
O762     O      0.709280000000     0.851120000000     0.501260000000    -0.513609   
O763     O      0.678330000000     0.922870000000     0.928340000000    -0.609177   
O764     O      0.741080000000     0.922750000000     0.928630000000    -0.459387   
O765     O      0.675780000000     0.494080000000     0.923930000000    -0.474948   
O766     O      0.742410000000     0.926050000000     0.500110000000    -0.624398   
O767     O      0.743130000000     0.493790000000     0.924690000000    -0.624049   
O768     O      0.675220000000     0.925750000000     0.499830000000    -0.47592    
Zr1      Zr     0.450000000000     0.024100000000     0.211130000000     1.2815     
Zr2      Zr     0.023020000000     0.464840000000     0.211020000000     1.28574    
Zr3      Zr     0.393480000000     0.953730000000     0.211970000000     1.29673    
Zr4      Zr     0.966060000000     0.394870000000     0.211780000000     1.29888    
Zr5      Zr     0.457990000000     0.459350000000     0.152000000000     1.26682    
Zr6      Zr     0.958540000000     0.959690000000     0.270910000000     1.26844    
Zr7      Zr     0.024660000000     0.209990000000     0.455150000000     1.28377    
Zr8      Zr     0.461490000000     0.209450000000     0.025160000000     1.29787    
Zr9      Zr     0.957510000000     0.210110000000     0.394690000000     1.29648    
Zr10     Zr     0.394790000000     0.209720000000     0.964490000000     1.29252    
Zr11     Zr     0.460150000000     0.150490000000     0.459830000000     1.26702    
Zr12     Zr     0.959380000000     0.269060000000     0.959890000000     1.26499    
Zr13     Zr     0.209570000000     0.025280000000     0.458120000000     1.28456    
Zr14     Zr     0.208740000000     0.462310000000     0.027730000000     1.29685    
Zr15     Zr     0.209740000000     0.958780000000     0.397070000000     1.29517    
Zr16     Zr     0.209180000000     0.395120000000     0.967370000000     1.28793    
Zr17     Zr     0.268490000000     0.460300000000     0.463080000000     1.26795    
Zr18     Zr     0.150210000000     0.959990000000     0.961760000000     1.26623    
Zr19     Zr     0.450170000000     0.024030000000     0.711080000000     1.2815     
Zr20     Zr     0.023130000000     0.464740000000     0.711010000000     1.28586    
Zr21     Zr     0.393580000000     0.953710000000     0.711920000000     1.29657    
Zr22     Zr     0.966130000000     0.394800000000     0.711780000000     1.29932    
Zr23     Zr     0.458110000000     0.459250000000     0.651970000000     1.2669     
Zr24     Zr     0.958640000000     0.959640000000     0.770870000000     1.26833    
Zr25     Zr     0.024190000000     0.210000000000     0.955680000000     1.28408    
Zr26     Zr     0.462720000000     0.209360000000     0.525180000000     1.2956     
Zr27     Zr     0.957660000000     0.210080000000     0.894590000000     1.29643    
Zr28     Zr     0.395370000000     0.209690000000     0.465220000000     1.29363    
Zr29     Zr     0.459630000000     0.150530000000     0.959820000000     1.26686    
Zr30     Zr     0.959850000000     0.269030000000     0.460010000000     1.26552    
Zr31     Zr     0.209470000000     0.024810000000     0.957770000000     1.28489    
Zr32     Zr     0.208800000000     0.462410000000     0.527730000000     1.29562    
Zr33     Zr     0.209700000000     0.957960000000     0.897110000000     1.29501    
Zr34     Zr     0.209230000000     0.395550000000     0.467030000000     1.28979    
Zr35     Zr     0.268450000000     0.459890000000     0.963110000000     1.26666    
Zr36     Zr     0.150260000000     0.960450000000     0.461750000000     1.26711    
Zr37     Zr     0.450630000000     0.524090000000     0.211070000000     1.29189    
Zr38     Zr     0.022590000000     0.965140000000     0.211070000000     1.28867    
Zr39     Zr     0.393840000000     0.453930000000     0.211990000000     1.2965     
Zr40     Zr     0.965930000000     0.894940000000     0.211760000000     1.29869    
Zr41     Zr     0.457640000000     0.959410000000     0.152030000000     1.26972    
Zr42     Zr     0.958940000000     0.459690000000     0.270870000000     1.26616    
Zr43     Zr     0.024760000000     0.709990000000     0.455050000000     1.28394    
Zr44     Zr     0.461650000000     0.709460000000     0.025110000000     1.29756    
Zr45     Zr     0.957570000000     0.710100000000     0.394640000000     1.29654    
Zr46     Zr     0.394900000000     0.709700000000     0.964510000000     1.29212    
Zr47     Zr     0.460260000000     0.650500000000     0.459780000000     1.2669     
Zr48     Zr     0.959490000000     0.769050000000     0.959830000000     1.2649     
Zr49     Zr     0.209650000000     0.525180000000     0.457950000000     1.29481    
Zr50     Zr     0.208740000000     0.961880000000     0.027370000000     1.29966    
Zr51     Zr     0.209720000000     0.458200000000     0.397480000000     1.29541    
Zr52     Zr     0.209290000000     0.895160000000     0.966490000000     1.2878     
Zr53     Zr     0.268520000000     0.960430000000     0.462700000000     1.27033    
Zr54     Zr     0.150190000000     0.460000000000     0.962130000000     1.26349    
Zr55     Zr     0.450800000000     0.524030000000     0.711010000000     1.2918     
Zr56     Zr     0.022710000000     0.965030000000     0.711060000000     1.28874    
Zr57     Zr     0.393930000000     0.453930000000     0.711950000000     1.29653    
Zr58     Zr     0.966000000000     0.894860000000     0.711760000000     1.29895    
Zr59     Zr     0.457770000000     0.959310000000     0.651990000000     1.26961    
Zr60     Zr     0.959030000000     0.459640000000     0.770830000000     1.26621    
Zr61     Zr     0.024290000000     0.710000000000     0.955570000000     1.2845     
Zr62     Zr     0.462890000000     0.709370000000     0.525130000000     1.29537    
Zr63     Zr     0.957700000000     0.710070000000     0.894540000000     1.29651    
Zr64     Zr     0.395470000000     0.709680000000     0.465240000000     1.2932     
Zr65     Zr     0.459750000000     0.650530000000     0.959770000000     1.26695    
Zr66     Zr     0.959960000000     0.769020000000     0.459950000000     1.26558    
Zr67     Zr     0.209560000000     0.524710000000     0.957620000000     1.295      
Zr68     Zr     0.208810000000     0.961950000000     0.527350000000     1.2984     
Zr69     Zr     0.209690000000     0.457400000000     0.897510000000     1.2951     
Zr70     Zr     0.209340000000     0.895580000000     0.466100000000     1.28964    
Zr71     Zr     0.268460000000     0.960030000000     0.962740000000     1.26893    
Zr72     Zr     0.150240000000     0.460460000000     0.462130000000     1.2642     
Zr73     Zr     0.950190000000     0.023870000000     0.211090000000     1.2819     
Zr74     Zr     0.522980000000     0.465310000000     0.211070000000     1.29439    
Zr75     Zr     0.893470000000     0.953670000000     0.211970000000     1.29642    
Zr76     Zr     0.466240000000     0.395160000000     0.211800000000     1.29671    
Zr77     Zr     0.958000000000     0.459080000000     0.151990000000     1.26923    
Zr78     Zr     0.458510000000     0.959910000000     0.270930000000     1.2664     
Zr79     Zr     0.524700000000     0.209940000000     0.455130000000     1.29259    
Zr80     Zr     0.961180000000     0.209410000000     0.024790000000     1.30023    
Zr81     Zr     0.457260000000     0.210100000000     0.395030000000     1.29619    
Zr82     Zr     0.894720000000     0.209670000000     0.963840000000     1.29265    
Zr83     Zr     0.960130000000     0.150500000000     0.459460000000     1.26918    
Zr84     Zr     0.459480000000     0.269040000000     0.960200000000     1.26312    
Zr85     Zr     0.709560000000     0.025260000000     0.458060000000     1.28437    
Zr86     Zr     0.708750000000     0.462350000000     0.027710000000     1.29693    
Zr87     Zr     0.709720000000     0.958740000000     0.397050000000     1.29525    
Zr88     Zr     0.709170000000     0.395110000000     0.967410000000     1.28796    
Zr89     Zr     0.768490000000     0.460290000000     0.463050000000     1.26793    
Zr90     Zr     0.650200000000     0.959960000000     0.961750000000     1.26637    
Zr91     Zr     0.950350000000     0.023790000000     0.711010000000     1.2818     
Zr92     Zr     0.523080000000     0.465180000000     0.711060000000     1.29458    
Zr93     Zr     0.893590000000     0.953630000000     0.711920000000     1.29639    
Zr94     Zr     0.466270000000     0.395080000000     0.711790000000     1.29689    
Zr95     Zr     0.958120000000     0.458960000000     0.651950000000     1.26924    
Zr96     Zr     0.458600000000     0.959860000000     0.770900000000     1.26648    
Zr97     Zr     0.524230000000     0.209930000000     0.955740000000     1.2931     
Zr98     Zr     0.962310000000     0.209330000000     0.524860000000     1.29755    
Zr99     Zr     0.457440000000     0.210060000000     0.894950000000     1.29608    
Zr100    Zr     0.895270000000     0.209650000000     0.464550000000     1.29345    
Zr101    Zr     0.959610000000     0.150530000000     0.959430000000     1.26917    
Zr102    Zr     0.459960000000     0.269020000000     0.460290000000     1.26383    
Zr103    Zr     0.709460000000     0.024770000000     0.957680000000     1.2849     
Zr104    Zr     0.708810000000     0.462430000000     0.527710000000     1.29555    
Zr105    Zr     0.709680000000     0.957860000000     0.897090000000     1.29495    
Zr106    Zr     0.709220000000     0.395550000000     0.467020000000     1.28983    
Zr107    Zr     0.768450000000     0.459870000000     0.963080000000     1.26687    
Zr108    Zr     0.650250000000     0.960430000000     0.461740000000     1.26705    
Zr109    Zr     0.950840000000     0.523850000000     0.211030000000     1.29239    
Zr110    Zr     0.522560000000     0.965600000000     0.211120000000     1.29742    
Zr111    Zr     0.893840000000     0.453880000000     0.211990000000     1.29632    
Zr112    Zr     0.466100000000     0.895220000000     0.211780000000     1.29659    
Zr113    Zr     0.957650000000     0.959140000000     0.152010000000     1.27217    
Zr114    Zr     0.458910000000     0.459910000000     0.270890000000     1.26422    
Zr115    Zr     0.524800000000     0.709930000000     0.455020000000     1.29265    
Zr116    Zr     0.961340000000     0.709420000000     0.024740000000     1.30004    
Zr117    Zr     0.457300000000     0.710080000000     0.394980000000     1.29635    
Zr118    Zr     0.894820000000     0.709650000000     0.963860000000     1.29225    
Zr119    Zr     0.960240000000     0.650500000000     0.459410000000     1.26939    
Zr120    Zr     0.459590000000     0.769030000000     0.960140000000     1.26304    
Zr121    Zr     0.709640000000     0.525170000000     0.457900000000     1.29482    
Zr122    Zr     0.708750000000     0.961920000000     0.027350000000     1.29964    
Zr123    Zr     0.709700000000     0.458160000000     0.397460000000     1.29519    
Zr124    Zr     0.709280000000     0.895140000000     0.966530000000     1.28793    
Zr125    Zr     0.768510000000     0.960420000000     0.462670000000     1.27027    
Zr126    Zr     0.650190000000     0.459970000000     0.962110000000     1.26348    
Zr127    Zr     0.950980000000     0.523780000000     0.710950000000     1.29223    
Zr128    Zr     0.522670000000     0.965470000000     0.711110000000     1.2975     
Zr129    Zr     0.893940000000     0.453840000000     0.711940000000     1.29619    
Zr130    Zr     0.466140000000     0.895140000000     0.711780000000     1.29665    
Zr131    Zr     0.957780000000     0.959030000000     0.651970000000     1.27193    
Zr132    Zr     0.459000000000     0.459860000000     0.770860000000     1.26409    
Zr133    Zr     0.524340000000     0.709930000000     0.955630000000     1.29325    
Zr134    Zr     0.962450000000     0.709340000000     0.524810000000     1.29715    
Zr135    Zr     0.457490000000     0.710040000000     0.894900000000     1.29627    
Zr136    Zr     0.895370000000     0.709640000000     0.464550000000     1.2932     
Zr137    Zr     0.959730000000     0.650530000000     0.959380000000     1.26921    
Zr138    Zr     0.460070000000     0.769010000000     0.460230000000     1.2639     
Zr139    Zr     0.709560000000     0.524670000000     0.957520000000     1.29499    
Zr140    Zr     0.708820000000     0.961980000000     0.527340000000     1.29834    
Zr141    Zr     0.709670000000     0.457300000000     0.897480000000     1.29505    
Zr142    Zr     0.709330000000     0.895580000000     0.466120000000     1.28985    
Zr143    Zr     0.768460000000     0.960000000000     0.962710000000     1.26915    
Zr144    Zr     0.650230000000     0.460450000000     0.462110000000     1.26403    


