data_structure

_audit_creation_method RASPA-1.0
_audit_creation_date 2023-5-19
_audit_author_name 'Poobodin Mano'

_cell_length_a    39.2313
_cell_length_b    39.2312
_cell_length_c    24.6691
_cell_angle_alpha 90
_cell_angle_beta  90
_cell_angle_gamma 90
_cell_volume      37968

_symmetry_cell_setting          triclinic
_symmetry_space_group_name_Hall 'P 1'
_symmetry_space_group_name_H-M  'P 1'
_symmetry_Int_Tables_number     1

_symmetry_equiv_pos_as_xyz 'x,y,z'

loop_
_atom_site_label
_atom_site_type_symbol
_atom_site_fract_x
_atom_site_fract_y
_atom_site_fract_z
_atom_site_charge
C1       C      0.360850000000     0.331540000000     0.257510000000     0.326426   
C2       C      0.356760000000     0.012670000000     0.592490000000     0.328748   
C3       C      0.356680000000     0.335930000000     0.585000000000     0.332631   
C4       C      0.361410000000     0.008230000000     0.270660000000     0.325719   
C5       C      0.986330000000     0.009260000000     0.260810000000     0.328378   
C6       C      0.983870000000     0.336400000000     0.577290000000     0.32866    
C7       C      0.982190000000     0.013550000000     0.584560000000     0.323857   
C8       C      0.988460000000     0.332270000000     0.246520000000     0.32956    
C9       C      0.263070000000     0.233760000000     0.335640000000     0.326535   
C10      C      0.081960000000     0.237870000000     0.500680000000     0.328924   
C11      C      0.258690000000     0.237950000000     0.508140000000     0.332486   
C12      C      0.086380000000     0.233200000000     0.322520000000     0.325666   
C13      C      0.085350000000     0.108280000000     0.332400000000     0.328497   
C14      C      0.258220000000     0.110750000000     0.515880000000     0.329119   
C15      C      0.081070000000     0.112440000000     0.508650000000     0.324193   
C16      C      0.262340000000     0.106150000000     0.346660000000     0.329738   
C17      C      0.044820000000     0.025700000000     0.288850000000    -0.00811574 
C18      C      0.010720000000     0.035150000000     0.280390000000    -0.0771796  
C19      C      0.001130000000     0.069340000000     0.288170000000    -0.00490376 
C20      C      0.025270000000     0.093480000000     0.305030000000    -0.00513499 
C21      C      0.059460000000     0.083890000000     0.312830000000    -0.0772464  
C22      C      0.068900000000     0.049780000000     0.304400000000    -0.00817229 
C23      C      0.040280000000     0.030500000000     0.555310000000    -0.00871628 
C24      C      0.006270000000     0.039920000000     0.564750000000    -0.072835   
C25      C      0.996590000000     0.074060000000     0.556060000000    -0.00664752 
C26      C      0.020560000000     0.098030000000     0.537130000000    -0.00579279 
C27      C      0.054700000000     0.088360000000     0.528470000000    -0.0734401  
C28      C      0.064130000000     0.054350000000     0.537960000000    -0.00839332 
C29      C      0.047720000000     0.313520000000     0.264990000000    -0.00352393 
C30      C      0.012860000000     0.305640000000     0.263400000000    -0.0758276  
C31      C      0.002140000000     0.272780000000     0.278480000000    -0.0051891  
C32      C      0.025930000000     0.248700000000     0.297010000000    -0.0068629  
C33      C      0.060850000000     0.256890000000     0.299220000000    -0.0728     
C34      C      0.071400000000     0.289420000000     0.282140000000    -0.010446   
C35      C      0.345910000000     0.068670000000     0.296170000000    -0.0067718  
C36      C      0.337720000000     0.033760000000     0.293960000000    -0.0728743  
C37      C      0.305190000000     0.023210000000     0.311030000000    -0.0103795  
C38      C      0.281090000000     0.046890000000     0.328180000000    -0.00353897 
C39      C      0.288970000000     0.081750000000     0.329780000000    -0.0759234  
C40      C      0.321830000000     0.092470000000     0.314700000000    -0.00538414 
C41      C      0.298540000000     0.319830000000     0.555330000000    -0.00781518 
C42      C      0.332490000000     0.310220000000     0.564710000000    -0.0818976  
C43      C      0.342280000000     0.276190000000     0.555920000000    -0.00811616 
C44      C      0.318430000000     0.252340000000     0.537240000000    -0.00812195 
C45      C      0.284410000000     0.262140000000     0.528410000000    -0.0818205  
C46      C      0.274800000000     0.296090000000     0.537760000000    -0.00787396 
C47      C      0.318410000000     0.096250000000     0.543890000000    -0.00699791 
C48      C      0.283910000000     0.086970000000     0.538160000000    -0.0742902  
C49      C      0.273950000000     0.053650000000     0.551610000000    -0.00800963 
C50      C      0.297840000000     0.029920000000     0.569090000000    -0.0051934  
C51      C      0.332300000000     0.038910000000     0.574520000000    -0.0762106  
C52      C      0.342400000000     0.072470000000     0.562700000000    -0.00435012 
C53      C      0.064710000000     0.296780000000     0.524100000000    -0.00506449 
C54      C      0.055710000000     0.262320000000     0.518660000000    -0.0764085  
C55      C      0.022160000000     0.252230000000     0.530480000000    -0.00393161 
C56      C      0.998380000000     0.276220000000     0.549290000000    -0.0075459  
C57      C      0.007660000000     0.310710000000     0.555010000000    -0.0737227  
C58      C      0.040970000000     0.320670000000     0.541570000000    -0.00821786 
C59      C      0.319640000000     0.284300000000     0.240850000000    -0.00575784 
C60      C      0.338460000000     0.304120000000     0.277670000000    -0.0741792  
C61      C      0.333690000000     0.299220000000     0.333520000000    -0.00586827 
C62      C      0.310330000000     0.274950000000     0.352290000000    -0.00576242 
C63      C      0.290490000000     0.256140000000     0.315470000000    -0.0742381  
C64      C      0.295360000000     0.260940000000     0.259610000000    -0.00587279 
C65      C      0.360850000000     0.331540000000     0.757510000000     0.326428   
C66      C      0.356760000000     0.012670000000     0.092500000000     0.328841   
C67      C      0.356680000000     0.335930000000     0.085000000000     0.332626   
C68      C      0.361410000000     0.008230000000     0.770660000000     0.32572    
C69      C      0.986330000000     0.009260000000     0.760810000000     0.328378   
C70      C      0.983870000000     0.336400000000     0.077290000000     0.328665   
C71      C      0.982190000000     0.013550000000     0.084560000000     0.323852   
C72      C      0.988460000000     0.332270000000     0.746520000000     0.329598   
C73      C      0.263070000000     0.233760000000     0.835640000000     0.326536   
C74      C      0.081960000000     0.237870000000     0.000680000000     0.328908   
C75      C      0.258690000000     0.237950000000     0.008140000000     0.332537   
C76      C      0.086380000000     0.233200000000     0.822520000000     0.325666   
C77      C      0.085350000000     0.108280000000     0.832400000000     0.328498   
C78      C      0.258220000000     0.110750000000     0.015880000000     0.329096   
C79      C      0.081070000000     0.112440000000     0.008650000000     0.32417    
C80      C      0.262340000000     0.106150000000     0.846660000000     0.329739   
C81      C      0.044820000000     0.025700000000     0.788850000000    -0.00811697 
C82      C      0.010720000000     0.035150000000     0.780390000000    -0.0771779  
C83      C      0.001130000000     0.069340000000     0.788170000000    -0.00490387 
C84      C      0.025270000000     0.093480000000     0.805030000000    -0.00513276 
C85      C      0.059460000000     0.083890000000     0.812830000000    -0.0772484  
C86      C      0.068900000000     0.049780000000     0.804390000000    -0.00816682 
C87      C      0.040280000000     0.030500000000     0.055310000000    -0.00871696 
C88      C      0.006270000000     0.039920000000     0.064750000000    -0.0728348  
C89      C      0.996590000000     0.074060000000     0.056050000000    -0.00664734 
C90      C      0.020560000000     0.098030000000     0.037130000000    -0.00579706 
C91      C      0.054700000000     0.088360000000     0.028470000000    -0.0734361  
C92      C      0.064130000000     0.054350000000     0.037960000000    -0.00839702 
C93      C      0.047720000000     0.313520000000     0.764990000000    -0.00351562 
C94      C      0.012860000000     0.305640000000     0.763400000000    -0.0758467  
C95      C      0.002140000000     0.272780000000     0.778480000000    -0.00518078 
C96      C      0.025930000000     0.248700000000     0.797010000000    -0.00686663 
C97      C      0.060850000000     0.256890000000     0.799220000000    -0.0727963  
C98      C      0.071400000000     0.289420000000     0.782140000000    -0.0104499  
C99      C      0.345910000000     0.068670000000     0.796170000000    -0.00677034 
C100     C      0.337720000000     0.033760000000     0.793960000000    -0.0728728  
C101     C      0.305190000000     0.023210000000     0.811030000000    -0.0103782  
C102     C      0.281090000000     0.046890000000     0.828180000000    -0.00353792 
C103     C      0.288970000000     0.081750000000     0.829780000000    -0.0759223  
C104     C      0.321830000000     0.092470000000     0.814700000000    -0.00538324 
C105     C      0.298540000000     0.319830000000     0.055330000000    -0.00782231 
C106     C      0.332490000000     0.310220000000     0.064710000000    -0.0818942  
C107     C      0.342280000000     0.276190000000     0.055920000000    -0.00812388 
C108     C      0.318430000000     0.252340000000     0.037240000000    -0.00811256 
C109     C      0.284410000000     0.262140000000     0.028410000000    -0.081845   
C110     C      0.274800000000     0.296090000000     0.037760000000    -0.00786573 
C111     C      0.318410000000     0.096250000000     0.043890000000    -0.00700486 
C112     C      0.283910000000     0.086970000000     0.038160000000    -0.074284   
C113     C      0.273950000000     0.053650000000     0.051610000000    -0.008017   
C114     C      0.297840000000     0.029920000000     0.069090000000    -0.0051875  
C115     C      0.332300000000     0.038910000000     0.074520000000    -0.0762283  
C116     C      0.342400000000     0.072470000000     0.062700000000    -0.00434071 
C117     C      0.064710000000     0.296780000000     0.024100000000    -0.00507084 
C118     C      0.055710000000     0.262320000000     0.018660000000    -0.0764055  
C119     C      0.022160000000     0.252230000000     0.030480000000    -0.00393991 
C120     C      0.998380000000     0.276220000000     0.049280000000    -0.00753663 
C121     C      0.007660000000     0.310710000000     0.055020000000    -0.0737427  
C122     C      0.040970000000     0.320670000000     0.041570000000    -0.00821261 
C123     C      0.319640000000     0.284300000000     0.740850000000    -0.00575741 
C124     C      0.338460000000     0.304120000000     0.777670000000    -0.0741801  
C125     C      0.333690000000     0.299220000000     0.833520000000    -0.00586731 
C126     C      0.310330000000     0.274950000000     0.852290000000    -0.00576195 
C127     C      0.290490000000     0.256140000000     0.815470000000    -0.0742385  
C128     C      0.295360000000     0.260940000000     0.759610000000    -0.00587266 
C129     C      0.360850000000     0.831540000000     0.257510000000     0.326452   
C130     C      0.356760000000     0.512670000000     0.592490000000     0.328705   
C131     C      0.356680000000     0.835930000000     0.585000000000     0.332628   
C132     C      0.361410000000     0.508230000000     0.270660000000     0.325688   
C133     C      0.986330000000     0.509260000000     0.260810000000     0.328326   
C134     C      0.983870000000     0.836400000000     0.577290000000     0.328761   
C135     C      0.982190000000     0.513550000000     0.584560000000     0.323815   
C136     C      0.988460000000     0.832270000000     0.246520000000     0.329656   
C137     C      0.263070000000     0.733760000000     0.335640000000     0.326521   
C138     C      0.081960000000     0.737860000000     0.500680000000     0.329122   
C139     C      0.258690000000     0.737950000000     0.508140000000     0.332635   
C140     C      0.086380000000     0.733200000000     0.322520000000     0.325649   
C141     C      0.085350000000     0.608280000000     0.332400000000     0.328501   
C142     C      0.258220000000     0.610750000000     0.515880000000     0.32912    
C143     C      0.081070000000     0.612440000000     0.508650000000     0.324193   
C144     C      0.262340000000     0.606150000000     0.346660000000     0.32974    
C145     C      0.044820000000     0.525700000000     0.288850000000    -0.00817905 
C146     C      0.010720000000     0.535150000000     0.280390000000    -0.0771513  
C147     C      0.001130000000     0.569340000000     0.288170000000    -0.00492098 
C148     C      0.025270000000     0.593480000000     0.305030000000    -0.00512425 
C149     C      0.059460000000     0.583890000000     0.312830000000    -0.0772601  
C150     C      0.068900000000     0.549780000000     0.304400000000    -0.00814805 
C151     C      0.040280000000     0.530500000000     0.555310000000    -0.00872579 
C152     C      0.006270000000     0.539920000000     0.564750000000    -0.0728282  
C153     C      0.996590000000     0.574060000000     0.556060000000    -0.00665394 
C154     C      0.020560000000     0.598030000000     0.537130000000    -0.00579108 
C155     C      0.054700000000     0.588360000000     0.528470000000    -0.0734435  
C156     C      0.064130000000     0.554350000000     0.537960000000    -0.00839212 
C157     C      0.047720000000     0.813520000000     0.264990000000    -0.00349849 
C158     C      0.012860000000     0.805640000000     0.263400000000    -0.0758797  
C159     C      0.002140000000     0.772780000000     0.278480000000    -0.0051669  
C160     C      0.025930000000     0.748700000000     0.297010000000    -0.00687718 
C161     C      0.060850000000     0.756890000000     0.299220000000    -0.0727829  
C162     C      0.071400000000     0.789420000000     0.282140000000    -0.0104616  
C163     C      0.345910000000     0.568680000000     0.296170000000    -0.00681655 
C164     C      0.337720000000     0.533760000000     0.293960000000    -0.0728409  
C165     C      0.305190000000     0.523210000000     0.311030000000    -0.0104416  
C166     C      0.281090000000     0.546890000000     0.328180000000    -0.00351666 
C167     C      0.288970000000     0.581750000000     0.329780000000    -0.0759295  
C168     C      0.321830000000     0.592470000000     0.314700000000    -0.00538648 
C169     C      0.298540000000     0.819830000000     0.555330000000    -0.00782892 
C170     C      0.332490000000     0.810220000000     0.564710000000    -0.0818874  
C171     C      0.342280000000     0.776190000000     0.555920000000    -0.00813026 
C172     C      0.318430000000     0.752340000000     0.537240000000    -0.00809266 
C173     C      0.284410000000     0.762140000000     0.528410000000    -0.0818743  
C174     C      0.274800000000     0.796090000000     0.537760000000    -0.00784732 
C175     C      0.318410000000     0.596250000000     0.543890000000    -0.00699553 
C176     C      0.283910000000     0.586970000000     0.538160000000    -0.0742935  
C177     C      0.273950000000     0.553650000000     0.551610000000    -0.00800801 
C178     C      0.297840000000     0.529920000000     0.569090000000    -0.00520272 
C179     C      0.332300000000     0.538910000000     0.574520000000    -0.0762022  
C180     C      0.342400000000     0.572470000000     0.562700000000    -0.00435661 
C181     C      0.064710000000     0.796780000000     0.524100000000    -0.00506624 
C182     C      0.055710000000     0.762320000000     0.518660000000    -0.0764041  
C183     C      0.022160000000     0.752230000000     0.530480000000    -0.00394301 
C184     C      0.998380000000     0.776220000000     0.549290000000    -0.0075257  
C185     C      0.007660000000     0.810710000000     0.555010000000    -0.0737747  
C186     C      0.040970000000     0.820670000000     0.541570000000    -0.00819944 
C187     C      0.319640000000     0.784300000000     0.240850000000    -0.00575113 
C188     C      0.338460000000     0.804120000000     0.277670000000    -0.0741923  
C189     C      0.333690000000     0.799220000000     0.333520000000    -0.0058613  
C190     C      0.310330000000     0.774950000000     0.352290000000    -0.00576865 
C191     C      0.290490000000     0.756140000000     0.315470000000    -0.0742283  
C192     C      0.295360000000     0.760940000000     0.259610000000    -0.00587915 
C193     C      0.360850000000     0.831540000000     0.757510000000     0.326454   
C194     C      0.356760000000     0.512670000000     0.092500000000     0.328798   
C195     C      0.356680000000     0.835930000000     0.085000000000     0.332622   
C196     C      0.361410000000     0.508230000000     0.770660000000     0.32569    
C197     C      0.986330000000     0.509260000000     0.760810000000     0.328327   
C198     C      0.983870000000     0.836400000000     0.077290000000     0.328766   
C199     C      0.982190000000     0.513550000000     0.084560000000     0.323809   
C200     C      0.988460000000     0.832270000000     0.746520000000     0.329693   
C201     C      0.263070000000     0.733760000000     0.835640000000     0.326522   
C202     C      0.081960000000     0.737860000000     0.000680000000     0.329106   
C203     C      0.258690000000     0.737950000000     0.008140000000     0.332687   
C204     C      0.086380000000     0.733200000000     0.822520000000     0.325649   
C205     C      0.085350000000     0.608280000000     0.832400000000     0.328502   
C206     C      0.258220000000     0.610750000000     0.015880000000     0.329097   
C207     C      0.081070000000     0.612440000000     0.008650000000     0.32417    
C208     C      0.262340000000     0.606150000000     0.846660000000     0.32974    
C209     C      0.044820000000     0.525700000000     0.788850000000    -0.00818028 
C210     C      0.010720000000     0.535150000000     0.780390000000    -0.0771495  
C211     C      0.001130000000     0.569340000000     0.788170000000    -0.00492108 
C212     C      0.025270000000     0.593480000000     0.805030000000    -0.00512202 
C213     C      0.059460000000     0.583890000000     0.812830000000    -0.0772621  
C214     C      0.068900000000     0.549780000000     0.804390000000    -0.00814258 
C215     C      0.040280000000     0.530500000000     0.055310000000    -0.00872647 
C216     C      0.006270000000     0.539920000000     0.064750000000    -0.072828   
C217     C      0.996590000000     0.574060000000     0.056050000000    -0.00665375 
C218     C      0.020560000000     0.598030000000     0.037130000000    -0.00579535 
C219     C      0.054700000000     0.588360000000     0.028470000000    -0.0734394  
C220     C      0.064130000000     0.554350000000     0.037960000000    -0.00839583 
C221     C      0.047720000000     0.813520000000     0.764990000000    -0.00349018 
C222     C      0.012860000000     0.805640000000     0.763400000000    -0.0758988  
C223     C      0.002140000000     0.772780000000     0.778480000000    -0.00515858 
C224     C      0.025930000000     0.748700000000     0.797010000000    -0.00688091 
C225     C      0.060850000000     0.756890000000     0.799220000000    -0.0727792  
C226     C      0.071400000000     0.789420000000     0.782140000000    -0.0104656  
C227     C      0.345910000000     0.568680000000     0.796170000000    -0.00681508 
C228     C      0.337720000000     0.533760000000     0.793960000000    -0.0728394  
C229     C      0.305190000000     0.523210000000     0.811030000000    -0.0104403  
C230     C      0.281090000000     0.546890000000     0.828180000000    -0.00351561 
C231     C      0.288970000000     0.581750000000     0.829780000000    -0.0759284  
C232     C      0.321830000000     0.592470000000     0.814700000000    -0.00538558 
C233     C      0.298540000000     0.819830000000     0.055330000000    -0.00783605 
C234     C      0.332490000000     0.810220000000     0.064710000000    -0.081884   
C235     C      0.342280000000     0.776190000000     0.055920000000    -0.00813799 
C236     C      0.318430000000     0.752340000000     0.037240000000    -0.00808325 
C237     C      0.284410000000     0.762140000000     0.028410000000    -0.0818988  
C238     C      0.274800000000     0.796090000000     0.037760000000    -0.00783908 
C239     C      0.318410000000     0.596250000000     0.043890000000    -0.00700248 
C240     C      0.283910000000     0.586970000000     0.038160000000    -0.0742873  
C241     C      0.273950000000     0.553650000000     0.051610000000    -0.00801539 
C242     C      0.297840000000     0.529920000000     0.069090000000    -0.00519682 
C243     C      0.332300000000     0.538910000000     0.074520000000    -0.0762199  
C244     C      0.342400000000     0.572470000000     0.062700000000    -0.0043472  
C245     C      0.064710000000     0.796780000000     0.024100000000    -0.00507259 
C246     C      0.055710000000     0.762320000000     0.018660000000    -0.0764011  
C247     C      0.022160000000     0.752230000000     0.030480000000    -0.00395132 
C248     C      0.998380000000     0.776220000000     0.049280000000    -0.00751643 
C249     C      0.007660000000     0.810710000000     0.055020000000    -0.0737948  
C250     C      0.040970000000     0.820670000000     0.041570000000    -0.00819419 
C251     C      0.319640000000     0.784300000000     0.740850000000    -0.00575071 
C252     C      0.338460000000     0.804120000000     0.777670000000    -0.0741933  
C253     C      0.333690000000     0.799220000000     0.833520000000    -0.00586033 
C254     C      0.310330000000     0.774950000000     0.852290000000    -0.00576818 
C255     C      0.290490000000     0.756140000000     0.815470000000    -0.0742287  
C256     C      0.295360000000     0.760940000000     0.759610000000    -0.00587902 
C257     C      0.860850000000     0.331540000000     0.257510000000     0.326342   
C258     C      0.856760000000     0.012670000000     0.592490000000     0.328811   
C259     C      0.856680000000     0.335930000000     0.585000000000     0.332711   
C260     C      0.861410000000     0.008230000000     0.270660000000     0.32566    
C261     C      0.486330000000     0.009260000000     0.260810000000     0.328544   
C262     C      0.483870000000     0.336400000000     0.577290000000     0.32885    
C263     C      0.482190000000     0.013550000000     0.584560000000     0.324145   
C264     C      0.488450000000     0.332270000000     0.246520000000     0.329747   
C265     C      0.763070000000     0.233760000000     0.335640000000     0.326513   
C266     C      0.581960000000     0.237870000000     0.500680000000     0.328866   
C267     C      0.758690000000     0.237950000000     0.508140000000     0.332481   
C268     C      0.586380000000     0.233200000000     0.322520000000     0.325697   
C269     C      0.585350000000     0.108280000000     0.332400000000     0.328502   
C270     C      0.758220000000     0.110750000000     0.515880000000     0.329122   
C271     C      0.581070000000     0.112440000000     0.508650000000     0.324137   
C272     C      0.762340000000     0.106150000000     0.346660000000     0.329741   
C273     C      0.544830000000     0.025700000000     0.288850000000    -0.00814689 
C274     C      0.510710000000     0.035150000000     0.280390000000    -0.0773235  
C275     C      0.501130000000     0.069340000000     0.288170000000    -0.00504023 
C276     C      0.525270000000     0.093480000000     0.305030000000    -0.00509845 
C277     C      0.559460000000     0.083890000000     0.312830000000    -0.0772734  
C278     C      0.568900000000     0.049780000000     0.304400000000    -0.00815085 
C279     C      0.540290000000     0.030500000000     0.555310000000    -0.00856117 
C280     C      0.506260000000     0.039920000000     0.564750000000    -0.0733427  
C281     C      0.496590000000     0.074060000000     0.556060000000    -0.00610029 
C282     C      0.520560000000     0.098030000000     0.537130000000    -0.0061462  
C283     C      0.554700000000     0.088360000000     0.528470000000    -0.0732922  
C284     C      0.564130000000     0.054350000000     0.537960000000    -0.00852633 
C285     C      0.547720000000     0.313520000000     0.264990000000    -0.00352943 
C286     C      0.512860000000     0.305640000000     0.263400000000    -0.075882   
C287     C      0.502140000000     0.272780000000     0.278480000000    -0.00538954 
C288     C      0.525930000000     0.248700000000     0.297010000000    -0.00679936 
C289     C      0.560850000000     0.256890000000     0.299220000000    -0.0728416  
C290     C      0.571400000000     0.289420000000     0.282140000000    -0.0104361  
C291     C      0.845910000000     0.068670000000     0.296170000000    -0.00678879 
C292     C      0.837720000000     0.033760000000     0.293960000000    -0.0728412  
C293     C      0.805190000000     0.023210000000     0.311030000000    -0.0103905  
C294     C      0.781090000000     0.046890000000     0.328180000000    -0.00353092 
C295     C      0.788970000000     0.081750000000     0.329780000000    -0.0759291  
C296     C      0.821830000000     0.092470000000     0.314700000000    -0.00537752 
C297     C      0.798550000000     0.319830000000     0.555330000000    -0.00774865 
C298     C      0.832490000000     0.310220000000     0.564710000000    -0.0819373  
C299     C      0.842280000000     0.276190000000     0.555920000000    -0.00809337 
C300     C      0.818430000000     0.252340000000     0.537240000000    -0.00813991 
C301     C      0.784410000000     0.262140000000     0.528410000000    -0.0818009  
C302     C      0.774800000000     0.296090000000     0.537760000000    -0.00791181 
C303     C      0.818410000000     0.096250000000     0.543890000000    -0.00698588 
C304     C      0.783910000000     0.086970000000     0.538160000000    -0.0742954  
C305     C      0.773950000000     0.053650000000     0.551610000000    -0.00799799 
C306     C      0.797840000000     0.029920000000     0.569090000000    -0.005207   
C307     C      0.832300000000     0.038910000000     0.574520000000    -0.0762241  
C308     C      0.842400000000     0.072470000000     0.562700000000    -0.00437751 
C309     C      0.564710000000     0.296780000000     0.524100000000    -0.00521653 
C310     C      0.555710000000     0.262320000000     0.518660000000    -0.0762579  
C311     C      0.522160000000     0.252230000000     0.530480000000    -0.00427287 
C312     C      0.498380000000     0.276220000000     0.549290000000    -0.007043   
C313     C      0.507660000000     0.310710000000     0.555010000000    -0.0741589  
C314     C      0.540970000000     0.320670000000     0.541570000000    -0.00803395 
C315     C      0.819630000000     0.284300000000     0.240850000000    -0.00577195 
C316     C      0.838470000000     0.304120000000     0.277670000000    -0.0741926  
C317     C      0.833690000000     0.299220000000     0.333520000000    -0.00585658 
C318     C      0.810330000000     0.274950000000     0.352290000000    -0.00577092 
C319     C      0.790490000000     0.256140000000     0.315470000000    -0.0742308  
C320     C      0.795360000000     0.260940000000     0.259610000000    -0.00586925 
C321     C      0.860850000000     0.331540000000     0.757510000000     0.326344   
C322     C      0.856760000000     0.012670000000     0.092500000000     0.328903   
C323     C      0.856680000000     0.335930000000     0.085000000000     0.332706   
C324     C      0.861410000000     0.008230000000     0.770660000000     0.325662   
C325     C      0.486330000000     0.009260000000     0.760810000000     0.328545   
C326     C      0.483870000000     0.336400000000     0.077290000000     0.328855   
C327     C      0.482190000000     0.013550000000     0.084560000000     0.324139   
C328     C      0.488450000000     0.332270000000     0.746520000000     0.329784   
C329     C      0.763070000000     0.233760000000     0.835640000000     0.326514   
C330     C      0.581960000000     0.237870000000     0.000680000000     0.32885    
C331     C      0.758690000000     0.237950000000     0.008140000000     0.332532   
C332     C      0.586380000000     0.233200000000     0.822520000000     0.325697   
C333     C      0.585350000000     0.108280000000     0.832400000000     0.328504   
C334     C      0.758220000000     0.110750000000     0.015880000000     0.329098   
C335     C      0.581070000000     0.112440000000     0.008650000000     0.324115   
C336     C      0.762340000000     0.106150000000     0.846660000000     0.329742   
C337     C      0.544830000000     0.025700000000     0.788850000000    -0.00814812 
C338     C      0.510710000000     0.035150000000     0.780390000000    -0.0773218  
C339     C      0.501130000000     0.069340000000     0.788170000000    -0.00504033 
C340     C      0.525270000000     0.093480000000     0.805030000000    -0.00509623 
C341     C      0.559460000000     0.083890000000     0.812830000000    -0.0772754  
C342     C      0.568900000000     0.049780000000     0.804390000000    -0.00814538 
C343     C      0.540290000000     0.030500000000     0.055310000000    -0.00856185 
C344     C      0.506260000000     0.039920000000     0.064750000000    -0.0733425  
C345     C      0.496590000000     0.074060000000     0.056050000000    -0.00610009 
C346     C      0.520560000000     0.098030000000     0.037130000000    -0.00615053 
C347     C      0.554700000000     0.088360000000     0.028470000000    -0.0732882  
C348     C      0.564130000000     0.054350000000     0.037960000000    -0.00853005 
C349     C      0.547720000000     0.313520000000     0.764990000000    -0.00352113 
C350     C      0.512860000000     0.305640000000     0.763400000000    -0.0759011  
C351     C      0.502140000000     0.272780000000     0.778480000000    -0.00538122 
C352     C      0.525930000000     0.248700000000     0.797010000000    -0.00680309 
C353     C      0.560850000000     0.256890000000     0.799220000000    -0.072838   
C354     C      0.571400000000     0.289420000000     0.782140000000    -0.01044    
C355     C      0.845910000000     0.068670000000     0.796170000000    -0.00678733 
C356     C      0.837720000000     0.033760000000     0.793960000000    -0.0728397  
C357     C      0.805190000000     0.023210000000     0.811030000000    -0.0103892  
C358     C      0.781090000000     0.046890000000     0.828180000000    -0.00352987 
C359     C      0.788970000000     0.081750000000     0.829780000000    -0.075928   
C360     C      0.821830000000     0.092470000000     0.814700000000    -0.00537662 
C361     C      0.798550000000     0.319830000000     0.055330000000    -0.00775577 
C362     C      0.832490000000     0.310220000000     0.064710000000    -0.0819339  
C363     C      0.842280000000     0.276190000000     0.055920000000    -0.0081011  
C364     C      0.818430000000     0.252340000000     0.037240000000    -0.00813053 
C365     C      0.784410000000     0.262140000000     0.028410000000    -0.0818254  
C366     C      0.774800000000     0.296090000000     0.037760000000    -0.00790359 
C367     C      0.818410000000     0.096250000000     0.043890000000    -0.00699283 
C368     C      0.783910000000     0.086970000000     0.038160000000    -0.0742892  
C369     C      0.773950000000     0.053650000000     0.051610000000    -0.00800536 
C370     C      0.797840000000     0.029920000000     0.069090000000    -0.0052011  
C371     C      0.832300000000     0.038910000000     0.074520000000    -0.0762418  
C372     C      0.842400000000     0.072470000000     0.062700000000    -0.0043681  
C373     C      0.564710000000     0.296780000000     0.024100000000    -0.00522287 
C374     C      0.555710000000     0.262320000000     0.018660000000    -0.0762548  
C375     C      0.522160000000     0.252230000000     0.030480000000    -0.00428123 
C376     C      0.498380000000     0.276220000000     0.049280000000    -0.00703373 
C377     C      0.507660000000     0.310710000000     0.055020000000    -0.0741789  
C378     C      0.540970000000     0.320670000000     0.041570000000    -0.00802873 
C379     C      0.819630000000     0.284300000000     0.740850000000    -0.00577152 
C380     C      0.838470000000     0.304120000000     0.777670000000    -0.0741936  
C381     C      0.833690000000     0.299220000000     0.833520000000    -0.00585561 
C382     C      0.810330000000     0.274950000000     0.852290000000    -0.00577045 
C383     C      0.790490000000     0.256140000000     0.815470000000    -0.0742311  
C384     C      0.795360000000     0.260940000000     0.759610000000    -0.00586912 
C385     C      0.860850000000     0.831540000000     0.257510000000     0.326369   
C386     C      0.856760000000     0.512670000000     0.592490000000     0.328768   
C387     C      0.856680000000     0.835930000000     0.585000000000     0.332708   
C388     C      0.861410000000     0.508230000000     0.270660000000     0.32563    
C389     C      0.486330000000     0.509260000000     0.260810000000     0.328493   
C390     C      0.483870000000     0.836400000000     0.577290000000     0.328951   
C391     C      0.482190000000     0.513550000000     0.584560000000     0.324103   
C392     C      0.488450000000     0.832270000000     0.246520000000     0.329842   
C393     C      0.763070000000     0.733760000000     0.335640000000     0.326499   
C394     C      0.581960000000     0.737860000000     0.500680000000     0.329065   
C395     C      0.758690000000     0.737950000000     0.508140000000     0.33263    
C396     C      0.586380000000     0.733200000000     0.322520000000     0.32568    
C397     C      0.585350000000     0.608280000000     0.332400000000     0.328506   
C398     C      0.758220000000     0.610750000000     0.515880000000     0.329123   
C399     C      0.581070000000     0.612440000000     0.508650000000     0.324137   
C400     C      0.762340000000     0.606150000000     0.346660000000     0.329743   
C401     C      0.544830000000     0.525700000000     0.288850000000    -0.0082102  
C402     C      0.510710000000     0.535150000000     0.280390000000    -0.0772952  
C403     C      0.501130000000     0.569340000000     0.288170000000    -0.00505747 
C404     C      0.525270000000     0.593480000000     0.305030000000    -0.0050877  
C405     C      0.559460000000     0.583890000000     0.312830000000    -0.0772871  
C406     C      0.568900000000     0.549780000000     0.304400000000    -0.00812659 
C407     C      0.540290000000     0.530500000000     0.555310000000    -0.00857063 
C408     C      0.506260000000     0.539920000000     0.564750000000    -0.073336   
C409     C      0.496590000000     0.574060000000     0.556060000000    -0.00610661 
C410     C      0.520560000000     0.598030000000     0.537130000000    -0.00614456 
C411     C      0.554700000000     0.588360000000     0.528470000000    -0.0732955  
C412     C      0.564130000000     0.554350000000     0.537960000000    -0.00852517 
C413     C      0.547720000000     0.813520000000     0.264990000000    -0.00350398 
C414     C      0.512860000000     0.805640000000     0.263400000000    -0.0759342  
C415     C      0.502140000000     0.772780000000     0.278480000000    -0.00536734 
C416     C      0.525930000000     0.748700000000     0.297010000000    -0.00681365 
C417     C      0.560850000000     0.756890000000     0.299220000000    -0.0728245  
C418     C      0.571400000000     0.789420000000     0.282140000000    -0.0104517  
C419     C      0.845910000000     0.568680000000     0.296170000000    -0.00683354 
C420     C      0.837720000000     0.533760000000     0.293960000000    -0.0728078  
C421     C      0.805190000000     0.523210000000     0.311030000000    -0.0104527  
C422     C      0.781090000000     0.546890000000     0.328180000000    -0.0035086  
C423     C      0.788970000000     0.581750000000     0.329780000000    -0.0759352  
C424     C      0.821830000000     0.592470000000     0.314700000000    -0.00537985 
C425     C      0.798550000000     0.819830000000     0.555330000000    -0.00776237 
C426     C      0.832490000000     0.810220000000     0.564710000000    -0.0819271  
C427     C      0.842280000000     0.776190000000     0.555920000000    -0.00810747 
C428     C      0.818430000000     0.752340000000     0.537240000000    -0.00811062 
C429     C      0.784410000000     0.762140000000     0.528410000000    -0.0818547  
C430     C      0.774800000000     0.796090000000     0.537760000000    -0.00788517 
C431     C      0.818410000000     0.596250000000     0.543890000000    -0.00698349 
C432     C      0.783910000000     0.586970000000     0.538160000000    -0.0742986  
C433     C      0.773950000000     0.553650000000     0.551610000000    -0.00799638 
C434     C      0.797840000000     0.529920000000     0.569090000000    -0.00521632 
C435     C      0.832300000000     0.538910000000     0.574520000000    -0.0762156  
C436     C      0.842400000000     0.572470000000     0.562700000000    -0.004384   
C437     C      0.564710000000     0.796780000000     0.524100000000    -0.00521827 
C438     C      0.555710000000     0.762320000000     0.518660000000    -0.0762535  
C439     C      0.522160000000     0.752230000000     0.530480000000    -0.00428427 
C440     C      0.498380000000     0.776220000000     0.549290000000    -0.0070228  
C441     C      0.507660000000     0.810710000000     0.555010000000    -0.0742109  
C442     C      0.540970000000     0.820670000000     0.541570000000    -0.00801553 
C443     C      0.819630000000     0.784300000000     0.240850000000    -0.00576525 
C444     C      0.838470000000     0.804120000000     0.277670000000    -0.0742058  
C445     C      0.833690000000     0.799220000000     0.333520000000    -0.00584961 
C446     C      0.810330000000     0.774950000000     0.352290000000    -0.00577715 
C447     C      0.790490000000     0.756140000000     0.315470000000    -0.074221   
C448     C      0.795360000000     0.760940000000     0.259610000000    -0.00587562 
C449     C      0.860850000000     0.831540000000     0.757510000000     0.32637    
C450     C      0.856760000000     0.512670000000     0.092500000000     0.328861   
C451     C      0.856680000000     0.835930000000     0.085000000000     0.332702   
C452     C      0.861410000000     0.508230000000     0.770660000000     0.325632   
C453     C      0.486330000000     0.509260000000     0.760810000000     0.328493   
C454     C      0.483870000000     0.836400000000     0.077290000000     0.328957   
C455     C      0.482190000000     0.513550000000     0.084560000000     0.324097   
C456     C      0.488450000000     0.832270000000     0.746520000000     0.32988    
C457     C      0.763070000000     0.733760000000     0.835640000000     0.3265     
C458     C      0.581960000000     0.737860000000     0.000680000000     0.329049   
C459     C      0.758690000000     0.737950000000     0.008140000000     0.332681   
C460     C      0.586380000000     0.733200000000     0.822520000000     0.32568    
C461     C      0.585350000000     0.608280000000     0.832400000000     0.328508   
C462     C      0.758220000000     0.610750000000     0.015880000000     0.329099   
C463     C      0.581070000000     0.612440000000     0.008650000000     0.324115   
C464     C      0.762340000000     0.606150000000     0.846660000000     0.329743   
C465     C      0.544830000000     0.525700000000     0.788850000000    -0.00821143 
C466     C      0.510710000000     0.535150000000     0.780390000000    -0.0772935  
C467     C      0.501130000000     0.569340000000     0.788170000000    -0.00505756 
C468     C      0.525270000000     0.593480000000     0.805030000000    -0.00508548 
C469     C      0.559460000000     0.583890000000     0.812830000000    -0.0772891  
C470     C      0.568900000000     0.549780000000     0.804390000000    -0.00812112 
C471     C      0.540290000000     0.530500000000     0.055310000000    -0.00857131 
C472     C      0.506260000000     0.539920000000     0.064750000000    -0.0733358  
C473     C      0.496590000000     0.574060000000     0.056050000000    -0.00610641 
C474     C      0.520560000000     0.598030000000     0.037130000000    -0.00614889 
C475     C      0.554700000000     0.588360000000     0.028470000000    -0.0732915  
C476     C      0.564130000000     0.554350000000     0.037960000000    -0.00852888 
C477     C      0.547720000000     0.813520000000     0.764990000000    -0.00349568 
C478     C      0.512860000000     0.805640000000     0.763400000000    -0.0759533  
C479     C      0.502140000000     0.772780000000     0.778480000000    -0.00535901 
C480     C      0.525930000000     0.748700000000     0.797010000000    -0.00681738 
C481     C      0.560850000000     0.756890000000     0.799220000000    -0.0728209  
C482     C      0.571400000000     0.789420000000     0.782140000000    -0.0104557  
C483     C      0.845910000000     0.568680000000     0.796170000000    -0.00683207 
C484     C      0.837720000000     0.533760000000     0.793960000000    -0.0728063  
C485     C      0.805190000000     0.523210000000     0.811030000000    -0.0104514  
C486     C      0.781090000000     0.546890000000     0.828180000000    -0.00350755 
C487     C      0.788970000000     0.581750000000     0.829780000000    -0.0759341  
C488     C      0.821830000000     0.592470000000     0.814700000000    -0.00537894 
C489     C      0.798550000000     0.819830000000     0.055330000000    -0.00776951 
C490     C      0.832490000000     0.810220000000     0.064710000000    -0.0819237  
C491     C      0.842280000000     0.776190000000     0.055920000000    -0.0081152  
C492     C      0.818430000000     0.752340000000     0.037240000000    -0.00810122 
C493     C      0.784410000000     0.762140000000     0.028410000000    -0.0818792  
C494     C      0.774800000000     0.796090000000     0.037760000000    -0.00787694 
C495     C      0.818410000000     0.596250000000     0.043890000000    -0.00699044 
C496     C      0.783910000000     0.586970000000     0.038160000000    -0.0742924  
C497     C      0.773950000000     0.553650000000     0.051610000000    -0.00800375 
C498     C      0.797840000000     0.529920000000     0.069090000000    -0.00521041 
C499     C      0.832300000000     0.538910000000     0.074520000000    -0.0762333  
C500     C      0.842400000000     0.572470000000     0.062700000000    -0.00437459 
C501     C      0.564710000000     0.796780000000     0.024100000000    -0.00522462 
C502     C      0.555710000000     0.762320000000     0.018660000000    -0.0762504  
C503     C      0.522160000000     0.752230000000     0.030480000000    -0.00429264 
C504     C      0.498380000000     0.776220000000     0.049280000000    -0.00701352 
C505     C      0.507660000000     0.810710000000     0.055020000000    -0.074231   
C506     C      0.540970000000     0.820670000000     0.041570000000    -0.00801031 
C507     C      0.819630000000     0.784300000000     0.740850000000    -0.00576482 
C508     C      0.838470000000     0.804120000000     0.777670000000    -0.0742067  
C509     C      0.833690000000     0.799220000000     0.833520000000    -0.00584864 
C510     C      0.810330000000     0.774950000000     0.852290000000    -0.00577668 
C511     C      0.790490000000     0.756140000000     0.815470000000    -0.0742213  
C512     C      0.795360000000     0.760940000000     0.759610000000    -0.00587549 
H1       H      0.347740000000     0.969090000000     0.680050000000     0.206909   
H2       H      0.918840000000     0.373440000000     0.549250000000     0.197267   
H3       H      0.995740000000     0.969910000000     0.169390000000     0.205958   
H4       H      0.925590000000     0.367500000000     0.287870000000     0.203554   
H5       H      0.376580000000     0.404070000000     0.483290000000     0.124683   
H6       H      0.946790000000     0.919530000000     0.470050000000     0.187574   
H7       H      0.038610000000     0.420610000000     0.613840000000     0.133029   
H8       H      0.046700000000     0.927470000000     0.219360000000     0.187494   
H9       H      0.961830000000     0.934860000000     0.361390000000     0.135194   
H10      H      0.395650000000     0.411670000000     0.373710000000     0.18611    
H11      H      0.306270000000     0.410060000000     0.225830000000     0.139342   
H12      H      0.297520000000     0.931160000000     0.626530000000     0.188943   
H13      H      0.045910000000     0.918370000000     0.285620000000     0.20451    
H14      H      0.354110000000     0.421410000000     0.373770000000     0.214015   
H15      H      0.297410000000     0.420170000000     0.560990000000     0.203548   
H16      H      0.987520000000     0.932270000000     0.469540000000     0.213068   
H17      H      0.125520000000     0.246880000000     0.413110000000     0.206755   
H18      H      0.221180000000     0.175790000000     0.543920000000     0.197518   
H19      H      0.124710000000     0.098870000000     0.423820000000     0.205805   
H20      H      0.227110000000     0.169010000000     0.305300000000     0.203559   
H21      H      0.190560000000     0.218060000000     0.609870000000     0.12468    
H22      H      0.175010000000     0.147880000000     0.623130000000     0.187457   
H23      H      0.174020000000     0.056010000000     0.479370000000     0.132951   
H24      H      0.167130000000     0.047910000000     0.373860000000     0.18743    
H25      H      0.159740000000     0.132760000000     0.231800000000     0.135192   
H26      H      0.182930000000     0.198940000000     0.219460000000     0.18619    
H27      H      0.184550000000     0.288340000000     0.367310000000     0.139274   
H28      H      0.163450000000     0.297100000000     0.466610000000     0.188743   
H29      H      0.176240000000     0.048690000000     0.307590000000     0.204472   
H30      H      0.173190000000     0.240480000000     0.219390000000     0.214041   
H31      H      0.174460000000     0.297220000000     0.532150000000     0.203511   
H32      H      0.162460000000     0.107090000000     0.623660000000     0.213227   
H33      H      0.053200000000     0.999680000000     0.282510000000     0.038648   
H34      H      0.975010000000     0.077320000000     0.281700000000     0.0456539  
H35      H      0.017290000000     0.119600000000     0.311480000000     0.0458265  
H36      H      0.094920000000     0.041400000000     0.310750000000     0.0386602  
H37      H      0.048770000000     0.004570000000     0.562170000000     0.0447376  
H38      H      0.970530000000     0.082030000000     0.563100000000     0.0445421  
H39      H      0.012580000000     0.124080000000     0.530040000000     0.0444077  
H40      H      0.090070000000     0.045870000000     0.531140000000     0.0446449  
H41      H      0.056790000000     0.338500000000     0.252960000000     0.0414954  
H42      H      0.975360000000     0.266080000000     0.277470000000     0.0429125  
H43      H      0.017020000000     0.223860000000     0.309920000000     0.0463761  
H44      H      0.097990000000     0.296810000000     0.283610000000     0.0475892  
H45      H      0.370750000000     0.077580000000     0.283260000000     0.0463275  
H46      H      0.297800000000     0.996620000000     0.309560000000     0.0475409  
H47      H      0.256110000000     0.037820000000     0.340210000000     0.041483   
H48      H      0.328530000000     0.119250000000     0.315710000000     0.0430507  
H49      H      0.290050000000     0.345750000000     0.562280000000     0.0397658  
H50      H      0.368310000000     0.268130000000     0.562940000000     0.043149   
H51      H      0.326490000000     0.226300000000     0.530250000000     0.0431337  
H52      H      0.248890000000     0.304590000000     0.530780000000     0.0397854  
H53      H      0.326800000000     0.121780000000     0.533850000000     0.0445457  
H54      H      0.247700000000     0.045490000000     0.547340000000     0.0472003  
H55      H      0.289180000000     0.004370000000     0.578620000000     0.0388501  
H56      H      0.368840000000     0.080020000000     0.566730000000     0.0442355  
H57      H      0.090250000000     0.305440000000     0.514570000000     0.0388132  
H58      H      0.014600000000     0.225790000000     0.526440000000     0.0441696  
H59      H      0.972840000000     0.267830000000     0.559320000000     0.0446485  
H60      H      0.049130000000     0.346920000000     0.545850000000     0.0472882  
H61      H      0.322650000000     0.287960000000     0.197560000000     0.0450138  
H62      H      0.347810000000     0.314380000000     0.362570000000     0.0354543  
H63      H      0.306700000000     0.271910000000     0.395580000000     0.0450277  
H64      H      0.280180000000     0.246840000000     0.230570000000     0.0354692  
H65      H      0.347740000000     0.969090000000     0.180050000000     0.206902   
H66      H      0.918840000000     0.373440000000     0.049250000000     0.197386   
H67      H      0.995740000000     0.969910000000     0.669390000000     0.20595    
H68      H      0.925590000000     0.367500000000     0.787870000000     0.20355    
H69      H      0.376580000000     0.404070000000     0.983290000000     0.124689   
H70      H      0.946790000000     0.919530000000     0.970050000000     0.187564   
H71      H      0.038610000000     0.420610000000     0.113840000000     0.133022   
H72      H      0.046700000000     0.927470000000     0.719360000000     0.187496   
H73      H      0.961830000000     0.934860000000     0.861390000000     0.135194   
H74      H      0.395650000000     0.411670000000     0.873700000000     0.186212   
H75      H      0.306270000000     0.410060000000     0.725830000000     0.139343   
H76      H      0.297520000000     0.931160000000     0.126530000000     0.188941   
H77      H      0.045910000000     0.918370000000     0.785620000000     0.20451    
H78      H      0.354110000000     0.421410000000     0.873760000000     0.214118   
H79      H      0.297410000000     0.420170000000     0.060990000000     0.203544   
H80      H      0.987520000000     0.932270000000     0.969540000000     0.213058   
H81      H      0.125520000000     0.246880000000     0.913110000000     0.206749   
H82      H      0.221180000000     0.175790000000     0.043920000000     0.197518   
H83      H      0.124710000000     0.098870000000     0.923820000000     0.205808   
H84      H      0.227110000000     0.169010000000     0.805300000000     0.203558   
H85      H      0.190560000000     0.218060000000     0.109870000000     0.124685   
H86      H      0.175010000000     0.147880000000     0.123130000000     0.187454   
H87      H      0.174020000000     0.056010000000     0.979370000000     0.132968   
H88      H      0.167130000000     0.047910000000     0.873860000000     0.187432   
H89      H      0.159740000000     0.132760000000     0.731800000000     0.135192   
H90      H      0.182930000000     0.198940000000     0.719460000000     0.186191   
H91      H      0.184550000000     0.288340000000     0.867310000000     0.139276   
H92      H      0.163450000000     0.297100000000     0.966610000000     0.188831   
H93      H      0.176240000000     0.048690000000     0.807590000000     0.204473   
H94      H      0.173190000000     0.240480000000     0.719390000000     0.214041   
H95      H      0.174460000000     0.297220000000     0.032150000000     0.203406   
H96      H      0.162460000000     0.107090000000     0.123660000000     0.213227   
H97      H      0.053200000000     0.999680000000     0.782510000000     0.0386494  
H98      H      0.975010000000     0.077320000000     0.781700000000     0.0456551  
H99      H      0.017290000000     0.119600000000     0.811480000000     0.0458272  
H100     H      0.094920000000     0.041400000000     0.810750000000     0.0386595  
H101     H      0.048770000000     0.004570000000     0.062170000000     0.0447362  
H102     H      0.970530000000     0.082030000000     0.063100000000     0.0445413  
H103     H      0.012580000000     0.124080000000     0.030040000000     0.0444049  
H104     H      0.090070000000     0.045870000000     0.031140000000     0.0446434  
H105     H      0.056790000000     0.338500000000     0.752960000000     0.0414945  
H106     H      0.975360000000     0.266080000000     0.777470000000     0.0429101  
H107     H      0.017020000000     0.223860000000     0.809920000000     0.0463781  
H108     H      0.097990000000     0.296810000000     0.783610000000     0.0475908  
H109     H      0.370750000000     0.077580000000     0.783260000000     0.0463287  
H110     H      0.297800000000     0.996620000000     0.809560000000     0.0475412  
H111     H      0.256110000000     0.037820000000     0.840210000000     0.0414844  
H112     H      0.328530000000     0.119250000000     0.815710000000     0.0430516  
H113     H      0.290050000000     0.345750000000     0.062280000000     0.0397659  
H114     H      0.368310000000     0.268130000000     0.062940000000     0.0431487  
H115     H      0.326490000000     0.226300000000     0.030250000000     0.0431289  
H116     H      0.248890000000     0.304590000000     0.030780000000     0.0397809  
H117     H      0.326800000000     0.121780000000     0.033840000000     0.0445452  
H118     H      0.247700000000     0.045490000000     0.047340000000     0.0471998  
H119     H      0.289180000000     0.004370000000     0.078620000000     0.0388448  
H120     H      0.368840000000     0.080020000000     0.066730000000     0.0442351  
H121     H      0.090250000000     0.305440000000     0.014570000000     0.0388092  
H122     H      0.014600000000     0.225790000000     0.026440000000     0.0441674  
H123     H      0.972840000000     0.267830000000     0.059320000000     0.044644   
H124     H      0.049130000000     0.346920000000     0.045850000000     0.0472851  
H125     H      0.322650000000     0.287960000000     0.697560000000     0.0450134  
H126     H      0.347810000000     0.314380000000     0.862570000000     0.0354555  
H127     H      0.306700000000     0.271910000000     0.895580000000     0.0450295  
H128     H      0.280180000000     0.246840000000     0.730570000000     0.0354692  
H129     H      0.347740000000     0.469090000000     0.680050000000     0.20679    
H130     H      0.918840000000     0.873440000000     0.549250000000     0.197266   
H131     H      0.995740000000     0.469910000000     0.169390000000     0.205965   
H132     H      0.925590000000     0.867490000000     0.287870000000     0.203418   
H133     H      0.376580000000     0.904070000000     0.483290000000     0.124684   
H134     H      0.946790000000     0.419530000000     0.470050000000     0.187615   
H135     H      0.038610000000     0.920610000000     0.613840000000     0.133024   
H136     H      0.046700000000     0.427480000000     0.219360000000     0.187451   
H137     H      0.961830000000     0.434860000000     0.361390000000     0.135193   
H138     H      0.395650000000     0.911670000000     0.373710000000     0.186113   
H139     H      0.306270000000     0.910060000000     0.225830000000     0.139273   
H140     H      0.297520000000     0.431160000000     0.626530000000     0.188949   
H141     H      0.045910000000     0.418370000000     0.285620000000     0.2045     
H142     H      0.354110000000     0.921410000000     0.373770000000     0.214013   
H143     H      0.297410000000     0.920170000000     0.560990000000     0.203544   
H144     H      0.987520000000     0.432270000000     0.469540000000     0.213026   
H145     H      0.125520000000     0.746880000000     0.413110000000     0.206766   
H146     H      0.221180000000     0.675790000000     0.543920000000     0.197516   
H147     H      0.124710000000     0.598870000000     0.423820000000     0.205804   
H148     H      0.227110000000     0.669010000000     0.305300000000     0.203573   
H149     H      0.190560000000     0.718060000000     0.609870000000     0.124691   
H150     H      0.175010000000     0.647880000000     0.623130000000     0.187463   
H151     H      0.174020000000     0.556010000000     0.479370000000     0.132949   
H152     H      0.167130000000     0.547910000000     0.373860000000     0.187425   
H153     H      0.159740000000     0.632760000000     0.231800000000     0.135192   
H154     H      0.182930000000     0.698930000000     0.219460000000     0.185935   
H155     H      0.184550000000     0.788340000000     0.367310000000     0.139254   
H156     H      0.163450000000     0.797100000000     0.466610000000     0.188746   
H157     H      0.176240000000     0.548690000000     0.307590000000     0.204467   
H158     H      0.173190000000     0.740490000000     0.219390000000     0.213804   
H159     H      0.174460000000     0.797220000000     0.532150000000     0.203512   
H160     H      0.162460000000     0.607090000000     0.623660000000     0.213227   
H161     H      0.053200000000     0.499680000000     0.282510000000     0.0386849  
H162     H      0.975010000000     0.577320000000     0.281700000000     0.0456567  
H163     H      0.017290000000     0.619600000000     0.311480000000     0.0458234  
H164     H      0.094920000000     0.541400000000     0.310750000000     0.0386477  
H165     H      0.048770000000     0.504570000000     0.562170000000     0.0447274  
H166     H      0.970530000000     0.582030000000     0.563100000000     0.044542   
H167     H      0.012580000000     0.624080000000     0.530040000000     0.0444054  
H168     H      0.090070000000     0.545870000000     0.531140000000     0.0446406  
H169     H      0.056790000000     0.838500000000     0.252960000000     0.0414844  
H170     H      0.975360000000     0.766080000000     0.277470000000     0.0429007  
H171     H      0.017020000000     0.723860000000     0.309920000000     0.0463803  
H172     H      0.097990000000     0.796810000000     0.283610000000     0.0475943  
H173     H      0.370750000000     0.577580000000     0.283260000000     0.0463414  
H174     H      0.297800000000     0.496620000000     0.309560000000     0.0475762  
H175     H      0.256110000000     0.537820000000     0.340210000000     0.0414706  
H176     H      0.328530000000     0.619240000000     0.315710000000     0.043057   
H177     H      0.290050000000     0.845750000000     0.562280000000     0.0397684  
H178     H      0.368310000000     0.768130000000     0.562940000000     0.0431517  
H179     H      0.326490000000     0.726300000000     0.530250000000     0.0431258  
H180     H      0.248890000000     0.804590000000     0.530780000000     0.0397783  
H181     H      0.326800000000     0.621780000000     0.533850000000     0.0445439  
H182     H      0.247700000000     0.545490000000     0.547340000000     0.0471959  
H183     H      0.289180000000     0.504370000000     0.578620000000     0.0388408  
H184     H      0.368840000000     0.580020000000     0.566730000000     0.0442357  
H185     H      0.090250000000     0.805440000000     0.514570000000     0.038816   
H186     H      0.014600000000     0.725790000000     0.526440000000     0.044169   
H187     H      0.972840000000     0.767830000000     0.559320000000     0.0446359  
H188     H      0.049130000000     0.846920000000     0.545850000000     0.0472796  
H189     H      0.322650000000     0.787960000000     0.197560000000     0.0450113  
H190     H      0.347810000000     0.814380000000     0.362570000000     0.0354519  
H191     H      0.306700000000     0.771910000000     0.395580000000     0.0450323  
H192     H      0.280180000000     0.746840000000     0.230570000000     0.0354729  
H193     H      0.347740000000     0.469090000000     0.180050000000     0.206783   
H194     H      0.918840000000     0.873440000000     0.049250000000     0.197385   
H195     H      0.995740000000     0.469910000000     0.669390000000     0.205957   
H196     H      0.925590000000     0.867490000000     0.787870000000     0.203415   
H197     H      0.376580000000     0.904070000000     0.983290000000     0.124689   
H198     H      0.946790000000     0.419530000000     0.970050000000     0.187605   
H199     H      0.038610000000     0.920610000000     0.113840000000     0.133018   
H200     H      0.046700000000     0.427480000000     0.719360000000     0.187453   
H201     H      0.961830000000     0.434860000000     0.861390000000     0.135193   
H202     H      0.395650000000     0.911670000000     0.873700000000     0.186215   
H203     H      0.306270000000     0.910060000000     0.725830000000     0.139273   
H204     H      0.297520000000     0.431160000000     0.126530000000     0.188948   
H205     H      0.045910000000     0.418370000000     0.785620000000     0.2045     
H206     H      0.354110000000     0.921410000000     0.873760000000     0.214116   
H207     H      0.297410000000     0.920170000000     0.060990000000     0.203541   
H208     H      0.987520000000     0.432270000000     0.969540000000     0.213017   
H209     H      0.125520000000     0.746880000000     0.913110000000     0.20676    
H210     H      0.221180000000     0.675790000000     0.043920000000     0.197515   
H211     H      0.124710000000     0.598870000000     0.923820000000     0.205807   
H212     H      0.227110000000     0.669010000000     0.805300000000     0.203573   
H213     H      0.190560000000     0.718060000000     0.109870000000     0.124696   
H214     H      0.175010000000     0.647880000000     0.123130000000     0.18746    
H215     H      0.174020000000     0.556010000000     0.979370000000     0.132966   
H216     H      0.167130000000     0.547910000000     0.873860000000     0.187427   
H217     H      0.159740000000     0.632760000000     0.731800000000     0.135193   
H218     H      0.182930000000     0.698930000000     0.719460000000     0.185935   
H219     H      0.184550000000     0.788340000000     0.867310000000     0.139256   
H220     H      0.163450000000     0.797100000000     0.966610000000     0.188833   
H221     H      0.176240000000     0.548690000000     0.807590000000     0.204468   
H222     H      0.173190000000     0.740490000000     0.719390000000     0.213804   
H223     H      0.174460000000     0.797220000000     0.032150000000     0.203407   
H224     H      0.162460000000     0.607090000000     0.123660000000     0.213227   
H225     H      0.053200000000     0.499680000000     0.782510000000     0.0386863  
H226     H      0.975010000000     0.577320000000     0.781700000000     0.0456579  
H227     H      0.017290000000     0.619600000000     0.811480000000     0.045824   
H228     H      0.094920000000     0.541400000000     0.810750000000     0.0386471  
H229     H      0.048770000000     0.504570000000     0.062170000000     0.044726   
H230     H      0.970530000000     0.582030000000     0.063100000000     0.0445412  
H231     H      0.012580000000     0.624080000000     0.030040000000     0.0444026  
H232     H      0.090070000000     0.545870000000     0.031140000000     0.044639   
H233     H      0.056790000000     0.838500000000     0.752960000000     0.0414835  
H234     H      0.975360000000     0.766080000000     0.777470000000     0.0428982  
H235     H      0.017020000000     0.723860000000     0.809920000000     0.0463823  
H236     H      0.097990000000     0.796810000000     0.783610000000     0.0475959  
H237     H      0.370750000000     0.577580000000     0.783260000000     0.0463426  
H238     H      0.297800000000     0.496620000000     0.809560000000     0.0475764  
H239     H      0.256110000000     0.537820000000     0.840210000000     0.0414721  
H240     H      0.328530000000     0.619240000000     0.815710000000     0.0430578  
H241     H      0.290050000000     0.845750000000     0.062280000000     0.0397684  
H242     H      0.368310000000     0.768130000000     0.062940000000     0.0431513  
H243     H      0.326490000000     0.726300000000     0.030250000000     0.043121   
H244     H      0.248890000000     0.804590000000     0.030780000000     0.0397737  
H245     H      0.326800000000     0.621780000000     0.033840000000     0.0445434  
H246     H      0.247700000000     0.545490000000     0.047340000000     0.0471954  
H247     H      0.289180000000     0.504370000000     0.078620000000     0.0388355  
H248     H      0.368840000000     0.580020000000     0.066730000000     0.0442353  
H249     H      0.090250000000     0.805440000000     0.014570000000     0.038812   
H250     H      0.014600000000     0.725790000000     0.026440000000     0.0441669  
H251     H      0.972840000000     0.767830000000     0.059320000000     0.0446314  
H252     H      0.049130000000     0.846920000000     0.045850000000     0.0472765  
H253     H      0.322650000000     0.787960000000     0.697560000000     0.0450109  
H254     H      0.347810000000     0.814380000000     0.862570000000     0.0354531  
H255     H      0.306700000000     0.771910000000     0.895580000000     0.0450341  
H256     H      0.280180000000     0.746840000000     0.730570000000     0.035473   
H257     H      0.847730000000     0.969090000000     0.680050000000     0.206716   
H258     H      0.418840000000     0.373440000000     0.549250000000     0.197266   
H259     H      0.495740000000     0.969910000000     0.169390000000     0.205996   
H260     H      0.425590000000     0.367500000000     0.287870000000     0.20355    
H261     H      0.876580000000     0.404070000000     0.483290000000     0.124613   
H262     H      0.446790000000     0.919530000000     0.470050000000     0.187586   
H263     H      0.538610000000     0.420610000000     0.613840000000     0.133006   
H264     H      0.546700000000     0.927470000000     0.219360000000     0.187478   
H265     H      0.461830000000     0.934860000000     0.361390000000     0.135196   
H266     H      0.895650000000     0.411670000000     0.373710000000     0.186106   
H267     H      0.806270000000     0.410060000000     0.225830000000     0.139343   
H268     H      0.797520000000     0.931160000000     0.626530000000     0.188945   
H269     H      0.545910000000     0.918370000000     0.285620000000     0.204494   
H270     H      0.854110000000     0.421410000000     0.373770000000     0.214017   
H271     H      0.797410000000     0.420170000000     0.560990000000     0.203555   
H272     H      0.487520000000     0.932270000000     0.469540000000     0.213109   
H273     H      0.625520000000     0.246880000000     0.413110000000     0.20676    
H274     H      0.721180000000     0.175790000000     0.543920000000     0.197523   
H275     H      0.624710000000     0.098870000000     0.423820000000     0.205804   
H276     H      0.727110000000     0.169010000000     0.305300000000     0.203551   
H277     H      0.690560000000     0.218060000000     0.609870000000     0.124681   
H278     H      0.675010000000     0.147880000000     0.623130000000     0.187494   
H279     H      0.674020000000     0.056010000000     0.479370000000     0.132951   
H280     H      0.667130000000     0.047910000000     0.373860000000     0.187429   
H281     H      0.659740000000     0.132760000000     0.231800000000     0.135302   
H282     H      0.682930000000     0.198940000000     0.219460000000     0.186186   
H283     H      0.684550000000     0.288340000000     0.367310000000     0.139277   
H284     H      0.663450000000     0.297100000000     0.466610000000     0.188741   
H285     H      0.676240000000     0.048690000000     0.307590000000     0.204475   
H286     H      0.673190000000     0.240480000000     0.219390000000     0.214038   
H287     H      0.674460000000     0.297220000000     0.532150000000     0.20351    
H288     H      0.662460000000     0.107090000000     0.623660000000     0.213182   
H289     H      0.553200000000     0.999680000000     0.282510000000     0.0386325  
H290     H      0.475010000000     0.077320000000     0.281700000000     0.0457785  
H291     H      0.517290000000     0.119600000000     0.311480000000     0.0457854  
H292     H      0.594920000000     0.041400000000     0.310750000000     0.0386527  
H293     H      0.548770000000     0.004570000000     0.562170000000     0.044674   
H294     H      0.470530000000     0.082030000000     0.563100000000     0.044443   
H295     H      0.512580000000     0.124080000000     0.530040000000     0.0444582  
H296     H      0.590070000000     0.045870000000     0.531140000000     0.044674   
H297     H      0.556790000000     0.338500000000     0.252960000000     0.041472   
H298     H      0.475360000000     0.266080000000     0.277470000000     0.0430471  
H299     H      0.517020000000     0.223860000000     0.309920000000     0.0463272  
H300     H      0.597990000000     0.296810000000     0.283610000000     0.0475832  
H301     H      0.870750000000     0.077580000000     0.283260000000     0.0463232  
H302     H      0.797800000000     0.996620000000     0.309560000000     0.047555   
H303     H      0.756110000000     0.037820000000     0.340210000000     0.0414824  
H304     H      0.828530000000     0.119250000000     0.315710000000     0.0430442  
H305     H      0.790050000000     0.345750000000     0.562280000000     0.0397545  
H306     H      0.868310000000     0.268130000000     0.562940000000     0.0431346  
H307     H      0.826490000000     0.226300000000     0.530250000000     0.0431337  
H308     H      0.748890000000     0.304590000000     0.530780000000     0.039796   
H309     H      0.826800000000     0.121780000000     0.533850000000     0.0445378  
H310     H      0.747700000000     0.045490000000     0.547340000000     0.0472007  
H311     H      0.789190000000     0.004370000000     0.578620000000     0.0388557  
H312     H      0.868830000000     0.080020000000     0.566730000000     0.0442373  
H313     H      0.590250000000     0.305440000000     0.514570000000     0.0388461  
H314     H      0.514600000000     0.225790000000     0.526440000000     0.0442177  
H315     H      0.472840000000     0.267830000000     0.559320000000     0.0445611  
H316     H      0.549130000000     0.346920000000     0.545850000000     0.0472194  
H317     H      0.822650000000     0.287960000000     0.197560000000     0.0450178  
H318     H      0.847810000000     0.314380000000     0.362570000000     0.0354531  
H319     H      0.806700000000     0.271910000000     0.395580000000     0.0450294  
H320     H      0.780180000000     0.246840000000     0.230570000000     0.0354696  
H321     H      0.847730000000     0.969090000000     0.180050000000     0.206709   
H322     H      0.418840000000     0.373440000000     0.049250000000     0.197385   
H323     H      0.495740000000     0.969910000000     0.669390000000     0.205988   
H324     H      0.425590000000     0.367500000000     0.787870000000     0.203547   
H325     H      0.876580000000     0.404070000000     0.983290000000     0.124618   
H326     H      0.446790000000     0.919530000000     0.970050000000     0.187577   
H327     H      0.538610000000     0.420610000000     0.113840000000     0.133      
H328     H      0.546700000000     0.927470000000     0.719360000000     0.18748    
H329     H      0.461830000000     0.934860000000     0.861390000000     0.135196   
H330     H      0.895650000000     0.411670000000     0.873700000000     0.186209   
H331     H      0.806270000000     0.410060000000     0.725830000000     0.139343   
H332     H      0.797520000000     0.931160000000     0.126530000000     0.188944   
H333     H      0.545910000000     0.918370000000     0.785620000000     0.204495   
H334     H      0.854110000000     0.421410000000     0.873760000000     0.214121   
H335     H      0.797410000000     0.420170000000     0.060990000000     0.203552   
H336     H      0.487520000000     0.932270000000     0.969540000000     0.2131     
H337     H      0.625520000000     0.246880000000     0.913110000000     0.206754   
H338     H      0.721180000000     0.175790000000     0.043920000000     0.197522   
H339     H      0.624710000000     0.098870000000     0.923820000000     0.205807   
H340     H      0.727110000000     0.169010000000     0.805300000000     0.203551   
H341     H      0.690560000000     0.218060000000     0.109870000000     0.124686   
H342     H      0.675010000000     0.147880000000     0.123130000000     0.187491   
H343     H      0.674020000000     0.056010000000     0.979370000000     0.132968   
H344     H      0.667130000000     0.047910000000     0.873860000000     0.187431   
H345     H      0.659740000000     0.132760000000     0.731800000000     0.135302   
H346     H      0.682930000000     0.198940000000     0.719460000000     0.186186   
H347     H      0.684550000000     0.288340000000     0.867310000000     0.139279   
H348     H      0.663450000000     0.297100000000     0.966610000000     0.188829   
H349     H      0.676240000000     0.048690000000     0.807590000000     0.204476   
H350     H      0.673190000000     0.240480000000     0.719390000000     0.214039   
H351     H      0.674460000000     0.297220000000     0.032150000000     0.203406   
H352     H      0.662460000000     0.107090000000     0.123660000000     0.213182   
H353     H      0.553200000000     0.999680000000     0.782510000000     0.0386339  
H354     H      0.475010000000     0.077320000000     0.781700000000     0.0457797  
H355     H      0.517290000000     0.119600000000     0.811480000000     0.0457861  
H356     H      0.594920000000     0.041400000000     0.810750000000     0.038652   
H357     H      0.548770000000     0.004570000000     0.062170000000     0.0446726  
H358     H      0.470530000000     0.082030000000     0.063100000000     0.0444423  
H359     H      0.512580000000     0.124080000000     0.030040000000     0.0444554  
H360     H      0.590070000000     0.045870000000     0.031140000000     0.0446725  
H361     H      0.556790000000     0.338500000000     0.752960000000     0.0414711  
H362     H      0.475360000000     0.266080000000     0.777470000000     0.0430447  
H363     H      0.517020000000     0.223860000000     0.809920000000     0.0463292  
H364     H      0.597990000000     0.296810000000     0.783610000000     0.0475848  
H365     H      0.870750000000     0.077580000000     0.783260000000     0.0463244  
H366     H      0.797800000000     0.996620000000     0.809560000000     0.0475552  
H367     H      0.756110000000     0.037820000000     0.840210000000     0.0414838  
H368     H      0.828530000000     0.119250000000     0.815710000000     0.0430451  
H369     H      0.790050000000     0.345750000000     0.062280000000     0.0397546  
H370     H      0.868310000000     0.268130000000     0.062940000000     0.0431342  
H371     H      0.826490000000     0.226300000000     0.030250000000     0.0431288  
H372     H      0.748890000000     0.304590000000     0.030780000000     0.0397914  
H373     H      0.826800000000     0.121780000000     0.033840000000     0.0445374  
H374     H      0.747700000000     0.045490000000     0.047340000000     0.0472002  
H375     H      0.789190000000     0.004370000000     0.078620000000     0.0388505  
H376     H      0.868830000000     0.080020000000     0.066730000000     0.0442369  
H377     H      0.590250000000     0.305440000000     0.014570000000     0.0388422  
H378     H      0.514600000000     0.225790000000     0.026440000000     0.0442156  
H379     H      0.472840000000     0.267830000000     0.059320000000     0.0445567  
H380     H      0.549130000000     0.346920000000     0.045850000000     0.0472163  
H381     H      0.822650000000     0.287960000000     0.697560000000     0.0450174  
H382     H      0.847810000000     0.314380000000     0.862570000000     0.0354543  
H383     H      0.806700000000     0.271910000000     0.895580000000     0.0450312  
H384     H      0.780180000000     0.246840000000     0.730570000000     0.0354696  
H385     H      0.847730000000     0.469090000000     0.680050000000     0.206597   
H386     H      0.418840000000     0.873440000000     0.549250000000     0.197265   
H387     H      0.495740000000     0.469910000000     0.169390000000     0.206003   
H388     H      0.425590000000     0.867490000000     0.287870000000     0.203415   
H389     H      0.876580000000     0.904070000000     0.483290000000     0.124613   
H390     H      0.446790000000     0.419530000000     0.470050000000     0.187628   
H391     H      0.538610000000     0.920610000000     0.613840000000     0.133002   
H392     H      0.546700000000     0.427480000000     0.219360000000     0.187436   
H393     H      0.461830000000     0.434860000000     0.361390000000     0.135195   
H394     H      0.895650000000     0.911670000000     0.373710000000     0.186109   
H395     H      0.806270000000     0.910060000000     0.225830000000     0.139273   
H396     H      0.797520000000     0.431160000000     0.626530000000     0.188952   
H397     H      0.545910000000     0.418370000000     0.285620000000     0.204484   
H398     H      0.854110000000     0.921410000000     0.373770000000     0.214015   
H399     H      0.797410000000     0.920170000000     0.560990000000     0.203552   
H400     H      0.487520000000     0.432270000000     0.469540000000     0.213068   
H401     H      0.625520000000     0.746880000000     0.413110000000     0.206771   
H402     H      0.721180000000     0.675790000000     0.543920000000     0.19752    
H403     H      0.624710000000     0.598870000000     0.423820000000     0.205803   
H404     H      0.727110000000     0.669010000000     0.305300000000     0.203565   
H405     H      0.690560000000     0.718060000000     0.609870000000     0.124692   
H406     H      0.675010000000     0.647880000000     0.623130000000     0.1875     
H407     H      0.674020000000     0.556010000000     0.479370000000     0.132948   
H408     H      0.667130000000     0.547910000000     0.373860000000     0.187424   
H409     H      0.659740000000     0.632760000000     0.231800000000     0.135303   
H410     H      0.682930000000     0.698930000000     0.219460000000     0.185931   
H411     H      0.684550000000     0.788340000000     0.367310000000     0.139257   
H412     H      0.663450000000     0.797100000000     0.466610000000     0.188744   
H413     H      0.676240000000     0.548690000000     0.307590000000     0.20447    
H414     H      0.673190000000     0.740490000000     0.219390000000     0.213801   
H415     H      0.674460000000     0.797220000000     0.532150000000     0.203511   
H416     H      0.662460000000     0.607090000000     0.623660000000     0.213182   
H417     H      0.553200000000     0.499680000000     0.282510000000     0.0386694  
H418     H      0.475010000000     0.577320000000     0.281700000000     0.0457813  
H419     H      0.517290000000     0.619600000000     0.311480000000     0.0457823  
H420     H      0.594920000000     0.541400000000     0.310750000000     0.0386402  
H421     H      0.548770000000     0.504570000000     0.562170000000     0.0446638  
H422     H      0.470530000000     0.582030000000     0.563100000000     0.0444429  
H423     H      0.512580000000     0.624080000000     0.530040000000     0.0444559  
H424     H      0.590070000000     0.545870000000     0.531140000000     0.0446697  
H425     H      0.556790000000     0.838500000000     0.252960000000     0.0414611  
H426     H      0.475360000000     0.766080000000     0.277470000000     0.0430353  
H427     H      0.517020000000     0.723860000000     0.309920000000     0.0463313  
H428     H      0.597990000000     0.796810000000     0.283610000000     0.0475882  
H429     H      0.870750000000     0.577580000000     0.283260000000     0.0463371  
H430     H      0.797800000000     0.496620000000     0.309560000000     0.0475902  
H431     H      0.756110000000     0.537820000000     0.340210000000     0.04147    
H432     H      0.828530000000     0.619240000000     0.315710000000     0.0430505  
H433     H      0.790050000000     0.845750000000     0.562280000000     0.039757   
H434     H      0.868310000000     0.768130000000     0.562940000000     0.0431372  
H435     H      0.826490000000     0.726300000000     0.530250000000     0.0431258  
H436     H      0.748890000000     0.804590000000     0.530780000000     0.0397889  
H437     H      0.826800000000     0.621780000000     0.533850000000     0.044536   
H438     H      0.747700000000     0.545490000000     0.547340000000     0.0471964  
H439     H      0.789190000000     0.504370000000     0.578620000000     0.0388464  
H440     H      0.868830000000     0.580020000000     0.566730000000     0.0442375  
H441     H      0.590250000000     0.805440000000     0.514570000000     0.0388489  
H442     H      0.514600000000     0.725790000000     0.526440000000     0.0442172  
H443     H      0.472840000000     0.767830000000     0.559320000000     0.0445485  
H444     H      0.549130000000     0.846920000000     0.545850000000     0.0472108  
H445     H      0.822650000000     0.787960000000     0.197560000000     0.0450154  
H446     H      0.847810000000     0.814380000000     0.362570000000     0.0354506  
H447     H      0.806700000000     0.771910000000     0.395580000000     0.045034   
H448     H      0.780180000000     0.746840000000     0.230570000000     0.0354733  
H449     H      0.847730000000     0.469090000000     0.180050000000     0.206591   
H450     H      0.418840000000     0.873440000000     0.049250000000     0.197384   
H451     H      0.495740000000     0.469910000000     0.669390000000     0.205995   
H452     H      0.425590000000     0.867490000000     0.787870000000     0.203411   
H453     H      0.876580000000     0.904070000000     0.983290000000     0.124618   
H454     H      0.446790000000     0.419530000000     0.970050000000     0.187618   
H455     H      0.538610000000     0.920610000000     0.113840000000     0.132995   
H456     H      0.546700000000     0.427480000000     0.719360000000     0.187438   
H457     H      0.461830000000     0.434860000000     0.861390000000     0.135195   
H458     H      0.895650000000     0.911670000000     0.873700000000     0.186212   
H459     H      0.806270000000     0.910060000000     0.725830000000     0.139274   
H460     H      0.797520000000     0.431160000000     0.126530000000     0.18895    
H461     H      0.545910000000     0.418370000000     0.785620000000     0.204485   
H462     H      0.854110000000     0.921410000000     0.873760000000     0.214118   
H463     H      0.797410000000     0.920170000000     0.060990000000     0.203548   
H464     H      0.487520000000     0.432270000000     0.969540000000     0.213058   
H465     H      0.625520000000     0.746880000000     0.913110000000     0.206765   
H466     H      0.721180000000     0.675790000000     0.043920000000     0.19752    
H467     H      0.624710000000     0.598870000000     0.923820000000     0.205806   
H468     H      0.727110000000     0.669010000000     0.805300000000     0.203565   
H469     H      0.690560000000     0.718060000000     0.109870000000     0.124697   
H470     H      0.675010000000     0.647880000000     0.123130000000     0.187497   
H471     H      0.674020000000     0.556010000000     0.979370000000     0.132965   
H472     H      0.667130000000     0.547910000000     0.873860000000     0.187427   
H473     H      0.659740000000     0.632760000000     0.731800000000     0.135303   
H474     H      0.682930000000     0.698930000000     0.719460000000     0.185931   
H475     H      0.684550000000     0.788340000000     0.867310000000     0.139259   
H476     H      0.663450000000     0.797100000000     0.966610000000     0.188831   
H477     H      0.676240000000     0.548690000000     0.807590000000     0.204471   
H478     H      0.673190000000     0.740490000000     0.719390000000     0.213801   
H479     H      0.674460000000     0.797220000000     0.032150000000     0.203406   
H480     H      0.662460000000     0.607090000000     0.123660000000     0.213182   
H481     H      0.553200000000     0.499680000000     0.782510000000     0.0386708  
H482     H      0.475010000000     0.577320000000     0.781700000000     0.0457825  
H483     H      0.517290000000     0.619600000000     0.811480000000     0.045783   
H484     H      0.594920000000     0.541400000000     0.810750000000     0.0386396  
H485     H      0.548770000000     0.504570000000     0.062170000000     0.0446624  
H486     H      0.470530000000     0.582030000000     0.063100000000     0.0444421  
H487     H      0.512580000000     0.624080000000     0.030040000000     0.0444532  
H488     H      0.590070000000     0.545870000000     0.031140000000     0.0446681  
H489     H      0.556790000000     0.838500000000     0.752960000000     0.0414601  
H490     H      0.475360000000     0.766080000000     0.777470000000     0.0430329  
H491     H      0.517020000000     0.723860000000     0.809920000000     0.0463334  
H492     H      0.597990000000     0.796810000000     0.783610000000     0.0475898  
H493     H      0.870750000000     0.577580000000     0.783260000000     0.0463383  
H494     H      0.797800000000     0.496620000000     0.809560000000     0.0475905  
H495     H      0.756110000000     0.537820000000     0.840210000000     0.0414715  
H496     H      0.828530000000     0.619240000000     0.815710000000     0.0430514  
H497     H      0.790050000000     0.845750000000     0.062280000000     0.0397571  
H498     H      0.868310000000     0.768130000000     0.062940000000     0.0431368  
H499     H      0.826490000000     0.726300000000     0.030250000000     0.043121   
H500     H      0.748890000000     0.804590000000     0.030780000000     0.0397843  
H501     H      0.826800000000     0.621780000000     0.033840000000     0.0445355  
H502     H      0.747700000000     0.545490000000     0.047340000000     0.0471958  
H503     H      0.789190000000     0.504370000000     0.078620000000     0.0388411  
H504     H      0.868830000000     0.580020000000     0.066730000000     0.0442371  
H505     H      0.590250000000     0.805440000000     0.014570000000     0.038845   
H506     H      0.514600000000     0.725790000000     0.026440000000     0.0442151  
H507     H      0.472840000000     0.767830000000     0.059320000000     0.044544   
H508     H      0.549130000000     0.846920000000     0.045850000000     0.0472077  
H509     H      0.822650000000     0.787960000000     0.697560000000     0.0450149  
H510     H      0.847810000000     0.814380000000     0.862570000000     0.0354518  
H511     H      0.806700000000     0.771910000000     0.895580000000     0.0450357  
H512     H      0.780180000000     0.746840000000     0.730570000000     0.0354733  
O1       O      0.355030000000     0.362030000000     0.275350000000    -0.343539   
O2       O      0.383070000000     0.323640000000     0.220990000000    -0.336301   
O3       O      0.349760000000     0.981720000000     0.578400000000    -0.345384   
O4       O      0.381450000000     0.021550000000     0.624190000000    -0.336514   
O5       O      0.349050000000     0.367400000000     0.575510000000    -0.355621   
O6       O      0.382350000000     0.325740000000     0.613370000000    -0.341853   
O7       O      0.355470000000     0.976670000000     0.282660000000    -0.344811   
O8       O      0.384010000000     0.018500000000     0.236140000000    -0.336013   
O9       O      0.313610000000     0.420370000000     0.260540000000    -0.331096   
O10      O      0.375020000000     0.917180000000     0.354190000000    -0.517476   
O11      O      0.309780000000     0.425210000000     0.593910000000    -0.505288   
O12      O      0.365960000000     0.925580000000     0.495760000000    -0.341576   
O13      O      0.368020000000     0.388680000000     0.173580000000    -0.465698   
O14      O      0.368020000000     0.955230000000     0.177800000000    -0.610509   
O15      O      0.993630000000     0.977800000000     0.271410000000    -0.352136   
O16      O      0.961450000000     0.019270000000     0.230460000000    -0.338683   
O17      O      0.990490000000     0.367990000000     0.566470000000    -0.344872   
O18      O      0.959820000000     0.326070000000     0.608990000000    -0.338688   
O19      O      0.988480000000     0.982620000000     0.569310000000    -0.345737   
O20      O      0.959090000000     0.022130000000     0.619450000000    -0.332601   
O21      O      0.996200000000     0.363310000000     0.259230000000    -0.342718   
O22      O      0.962290000000     0.323320000000     0.218140000000    -0.338245   
O23      O      0.034000000000     0.922440000000     0.251950000000    -0.504578   
O24      O      0.977100000000     0.916720000000     0.347650000000    -0.350504   
O25      O      0.029830000000     0.926350000000     0.577350000000    -0.327916   
O26      O      0.967310000000     0.925710000000     0.489360000000    -0.517515   
O27      O      0.975520000000     0.955890000000     0.669920000000    -0.61143    
O28      O      0.975990000000     0.389350000000     0.665780000000    -0.463879   
O29      O      0.424160000000     0.957520000000     0.262740000000    -0.475366   
O30      O      0.919590000000     0.387750000000     0.581120000000    -0.621771   
O31      O      0.924560000000     0.383310000000     0.257880000000    -0.621699   
O32      O      0.419280000000     0.961940000000     0.585120000000    -0.470832   
O33      O      0.232580000000     0.239570000000     0.317800000000    -0.343664   
O34      O      0.270970000000     0.211540000000     0.372160000000    -0.33633    
O35      O      0.112900000000     0.244860000000     0.514770000000    -0.345463   
O36      O      0.073070000000     0.213170000000     0.469000000000    -0.336545   
O37      O      0.227220000000     0.245580000000     0.517630000000    -0.355628   
O38      O      0.268880000000     0.212270000000     0.479770000000    -0.341771   
O39      O      0.117940000000     0.239140000000     0.310510000000    -0.344781   
O40      O      0.076110000000     0.210610000000     0.357050000000    -0.336016   
O41      O      0.174230000000     0.281000000000     0.332600000000    -0.331023   
O42      O      0.177420000000     0.219570000000     0.238970000000    -0.517577   
O43      O      0.169420000000     0.284840000000     0.499240000000    -0.505106   
O44      O      0.169050000000     0.228680000000     0.597400000000    -0.341576   
O45      O      0.205940000000     0.226600000000     0.419580000000    -0.465673   
O46      O      0.139390000000     0.226600000000     0.415370000000    -0.610295   
O47      O      0.116810000000     0.100980000000     0.321800000000    -0.352117   
O48      O      0.075340000000     0.133160000000     0.362750000000    -0.338741   
O49      O      0.226640000000     0.104130000000     0.526720000000    -0.34494    
O50      O      0.268540000000     0.134800000000     0.484170000000    -0.338861   
O51      O      0.112000000000     0.106150000000     0.523900000000    -0.345722   
O52      O      0.072490000000     0.135530000000     0.473750000000    -0.332736   
O53      O      0.231300000000     0.098400000000     0.333960000000    -0.342672   
O54      O      0.271290000000     0.132320000000     0.375030000000    -0.338335   
O55      O      0.172170000000     0.060600000000     0.341260000000    -0.504527   
O56      O      0.177890000000     0.117500000000     0.245540000000    -0.350463   
O57      O      0.168270000000     0.064800000000     0.515860000000    -0.327998   
O58      O      0.168920000000     0.127320000000     0.603830000000    -0.517516   
O59      O      0.138730000000     0.119100000000     0.423280000000    -0.611319   
O60      O      0.205270000000     0.118630000000     0.427410000000    -0.46389    
O61      O      0.137090000000     0.170440000000     0.330440000000    -0.475331   
O62      O      0.206880000000     0.175030000000     0.512060000000    -0.621901   
O63      O      0.211300000000     0.170040000000     0.335290000000    -0.621719   
O64      O      0.132680000000     0.175340000000     0.508060000000    -0.470752   
O65      O      0.355030000000     0.362030000000     0.775350000000    -0.343541   
O66      O      0.383070000000     0.323640000000     0.720990000000    -0.336306   
O67      O      0.349760000000     0.981720000000     0.078400000000    -0.345398   
O68      O      0.381450000000     0.021550000000     0.124180000000    -0.336581   
O69      O      0.349050000000     0.367400000000     0.075510000000    -0.355624   
O70      O      0.382350000000     0.325740000000     0.113370000000    -0.341854   
O71      O      0.355470000000     0.976670000000     0.782660000000    -0.344812   
O72      O      0.384010000000     0.018500000000     0.736140000000    -0.336008   
O73      O      0.313610000000     0.420370000000     0.760540000000    -0.331099   
O74      O      0.375020000000     0.917180000000     0.854190000000    -0.517656   
O75      O      0.309780000000     0.425210000000     0.093910000000    -0.505287   
O76      O      0.365960000000     0.925580000000     0.995760000000    -0.341559   
O77      O      0.368020000000     0.388680000000     0.673580000000    -0.465698   
O78      O      0.368020000000     0.955230000000     0.677800000000    -0.610508   
O79      O      0.993630000000     0.977800000000     0.771410000000    -0.352137   
O80      O      0.961450000000     0.019270000000     0.730460000000    -0.338684   
O81      O      0.990490000000     0.367990000000     0.066470000000    -0.344865   
O82      O      0.959820000000     0.326070000000     0.108990000000    -0.33869    
O83      O      0.988480000000     0.982620000000     0.069310000000    -0.345726   
O84      O      0.959090000000     0.022130000000     0.119450000000    -0.332596   
O85      O      0.996200000000     0.363310000000     0.759220000000    -0.342743   
O86      O      0.962290000000     0.323320000000     0.718140000000    -0.338257   
O87      O      0.034000000000     0.922440000000     0.751950000000    -0.504577   
O88      O      0.977100000000     0.916720000000     0.847650000000    -0.350508   
O89      O      0.029830000000     0.926350000000     0.077350000000    -0.327909   
O90      O      0.967310000000     0.925710000000     0.989360000000    -0.517438   
O91      O      0.975520000000     0.955890000000     0.169920000000    -0.611468   
O92      O      0.975990000000     0.389350000000     0.165780000000    -0.463917   
O93      O      0.424160000000     0.957520000000     0.762740000000    -0.475368   
O94      O      0.919590000000     0.387750000000     0.081110000000    -0.621838   
O95      O      0.924560000000     0.383310000000     0.757880000000    -0.621703   
O96      O      0.419280000000     0.961940000000     0.085120000000    -0.470823   
O97      O      0.232580000000     0.239570000000     0.817800000000    -0.343665   
O98      O      0.270970000000     0.211540000000     0.872160000000    -0.336337   
O99      O      0.112900000000     0.244860000000     0.014770000000    -0.345482   
O100     O      0.073070000000     0.213170000000     0.969000000000    -0.336528   
O101     O      0.227220000000     0.245580000000     0.017630000000    -0.355664   
O102     O      0.268880000000     0.212270000000     0.979780000000    -0.341783   
O103     O      0.117940000000     0.239140000000     0.810510000000    -0.344781   
O104     O      0.076110000000     0.210610000000     0.857050000000    -0.336017   
O105     O      0.174230000000     0.281000000000     0.832600000000    -0.331023   
O106     O      0.177420000000     0.219570000000     0.738970000000    -0.517578   
O107     O      0.169420000000     0.284840000000     0.999230000000    -0.505086   
O108     O      0.169050000000     0.228680000000     0.097400000000    -0.341631   
O109     O      0.205940000000     0.226600000000     0.919580000000    -0.465641   
O110     O      0.139390000000     0.226600000000     0.915370000000    -0.610256   
O111     O      0.116810000000     0.100980000000     0.821800000000    -0.352117   
O112     O      0.075340000000     0.133160000000     0.862750000000    -0.338742   
O113     O      0.226640000000     0.104130000000     0.026720000000    -0.344937   
O114     O      0.268540000000     0.134800000000     0.984170000000    -0.338839   
O115     O      0.112000000000     0.106150000000     0.023900000000    -0.345719   
O116     O      0.072490000000     0.135530000000     0.973750000000    -0.332717   
O117     O      0.231300000000     0.098400000000     0.833960000000    -0.342671   
O118     O      0.271290000000     0.132320000000     0.875030000000    -0.338335   
O119     O      0.172170000000     0.060600000000     0.841260000000    -0.504527   
O120     O      0.177890000000     0.117500000000     0.745540000000    -0.350463   
O121     O      0.168270000000     0.064800000000     0.015860000000    -0.328014   
O122     O      0.168920000000     0.127320000000     0.103830000000    -0.517514   
O123     O      0.138730000000     0.119100000000     0.923280000000    -0.611312   
O124     O      0.205270000000     0.118630000000     0.927410000000    -0.463881   
O125     O      0.137090000000     0.170440000000     0.830440000000    -0.475332   
O126     O      0.206880000000     0.175030000000     0.012060000000    -0.621918   
O127     O      0.211300000000     0.170040000000     0.835290000000    -0.621719   
O128     O      0.132680000000     0.175340000000     0.008060000000    -0.470772   
O129     O      0.355030000000     0.862030000000     0.275350000000    -0.343609   
O130     O      0.383070000000     0.823640000000     0.220990000000    -0.336317   
O131     O      0.349760000000     0.481720000000     0.578400000000    -0.345355   
O132     O      0.381450000000     0.521550000000     0.624190000000    -0.336526   
O133     O      0.349050000000     0.867400000000     0.575510000000    -0.355617   
O134     O      0.382350000000     0.825740000000     0.613370000000    -0.341855   
O135     O      0.355470000000     0.476670000000     0.282660000000    -0.344854   
O136     O      0.384010000000     0.518500000000     0.236140000000    -0.336033   
O137     O      0.313610000000     0.920380000000     0.260540000000    -0.331041   
O138     O      0.375020000000     0.417180000000     0.354190000000    -0.517479   
O139     O      0.309780000000     0.925210000000     0.593910000000    -0.505288   
O140     O      0.365960000000     0.425580000000     0.495760000000    -0.341579   
O141     O      0.368020000000     0.888680000000     0.173580000000    -0.46575    
O142     O      0.368020000000     0.455220000000     0.177800000000    -0.610474   
O143     O      0.993630000000     0.477800000000     0.271410000000    -0.352106   
O144     O      0.961450000000     0.519270000000     0.230460000000    -0.338685   
O145     O      0.990490000000     0.867990000000     0.566470000000    -0.3449     
O146     O      0.959820000000     0.826080000000     0.608990000000    -0.338769   
O147     O      0.988480000000     0.482620000000     0.569310000000    -0.345711   
O148     O      0.959090000000     0.522130000000     0.619450000000    -0.332605   
O149     O      0.996200000000     0.863310000000     0.259230000000    -0.342733   
O150     O      0.962290000000     0.823330000000     0.218140000000    -0.338325   
O151     O      0.034000000000     0.422440000000     0.251950000000    -0.504526   
O152     O      0.977100000000     0.416720000000     0.347650000000    -0.350506   
O153     O      0.029830000000     0.426350000000     0.577350000000    -0.32791    
O154     O      0.967310000000     0.425700000000     0.489360000000    -0.517512   
O155     O      0.975520000000     0.455890000000     0.669920000000    -0.611426   
O156     O      0.975990000000     0.889350000000     0.665780000000    -0.463872   
O157     O      0.424160000000     0.457520000000     0.262740000000    -0.475404   
O158     O      0.919590000000     0.887750000000     0.581120000000    -0.621767   
O159     O      0.924560000000     0.883310000000     0.257880000000    -0.621593   
O160     O      0.419280000000     0.461940000000     0.585120000000    -0.470834   
O161     O      0.232580000000     0.739570000000     0.317800000000    -0.34363    
O162     O      0.270970000000     0.711540000000     0.372160000000    -0.336321   
O163     O      0.112900000000     0.744860000000     0.514770000000    -0.345506   
O164     O      0.073070000000     0.713180000000     0.469000000000    -0.336687   
O165     O      0.227220000000     0.745580000000     0.517630000000    -0.355668   
O166     O      0.268880000000     0.712280000000     0.479770000000    -0.341832   
O167     O      0.117940000000     0.739140000000     0.310510000000    -0.344746   
O168     O      0.076110000000     0.710610000000     0.357050000000    -0.336004   
O169     O      0.174230000000     0.780990000000     0.332600000000    -0.330979   
O170     O      0.177420000000     0.719570000000     0.238970000000    -0.517117   
O171     O      0.169420000000     0.784840000000     0.499240000000    -0.505102   
O172     O      0.169050000000     0.728680000000     0.597400000000    -0.341567   
O173     O      0.205940000000     0.726600000000     0.419580000000    -0.465651   
O174     O      0.139390000000     0.726600000000     0.415370000000    -0.610281   
O175     O      0.116810000000     0.600980000000     0.321800000000    -0.352116   
O176     O      0.075340000000     0.633160000000     0.362750000000    -0.33874    
O177     O      0.226640000000     0.604130000000     0.526720000000    -0.344941   
O178     O      0.268540000000     0.634800000000     0.484170000000    -0.338865   
O179     O      0.112000000000     0.606150000000     0.523900000000    -0.345723   
O180     O      0.072490000000     0.635530000000     0.473750000000    -0.332741   
O181     O      0.231300000000     0.598400000000     0.333960000000    -0.342671   
O182     O      0.271290000000     0.632320000000     0.375030000000    -0.338333   
O183     O      0.172170000000     0.560600000000     0.341260000000    -0.504524   
O184     O      0.177890000000     0.617500000000     0.245540000000    -0.350463   
O185     O      0.168270000000     0.564800000000     0.515860000000    -0.328001   
O186     O      0.168920000000     0.627320000000     0.603830000000    -0.517517   
O187     O      0.138730000000     0.619100000000     0.423280000000    -0.611317   
O188     O      0.205270000000     0.618630000000     0.427410000000    -0.463888   
O189     O      0.137090000000     0.670440000000     0.330440000000    -0.47538    
O190     O      0.206880000000     0.675030000000     0.512060000000    -0.621903   
O191     O      0.211300000000     0.670040000000     0.335290000000    -0.621777   
O192     O      0.132680000000     0.675340000000     0.508060000000    -0.470761   
O193     O      0.355030000000     0.862030000000     0.775350000000    -0.343611   
O194     O      0.383070000000     0.823640000000     0.720990000000    -0.336322   
O195     O      0.349760000000     0.481720000000     0.078400000000    -0.345368   
O196     O      0.381450000000     0.521550000000     0.124180000000    -0.336593   
O197     O      0.349050000000     0.867400000000     0.075510000000    -0.35562    
O198     O      0.382350000000     0.825740000000     0.113370000000    -0.341855   
O199     O      0.355470000000     0.476670000000     0.782660000000    -0.344855   
O200     O      0.384010000000     0.518500000000     0.736140000000    -0.336028   
O201     O      0.313610000000     0.920380000000     0.760540000000    -0.331044   
O202     O      0.375020000000     0.417180000000     0.854190000000    -0.517659   
O203     O      0.309780000000     0.925210000000     0.093910000000    -0.505287   
O204     O      0.365960000000     0.425580000000     0.995760000000    -0.341561   
O205     O      0.368020000000     0.888680000000     0.673580000000    -0.46575    
O206     O      0.368020000000     0.455220000000     0.677800000000    -0.610474   
O207     O      0.993630000000     0.477800000000     0.771410000000    -0.352106   
O208     O      0.961450000000     0.519270000000     0.730460000000    -0.338686   
O209     O      0.990490000000     0.867990000000     0.066470000000    -0.344893   
O210     O      0.959820000000     0.826080000000     0.108990000000    -0.338772   
O211     O      0.988480000000     0.482620000000     0.069310000000    -0.3457     
O212     O      0.959090000000     0.522130000000     0.119450000000    -0.3326     
O213     O      0.996200000000     0.863310000000     0.759220000000    -0.342758   
O214     O      0.962290000000     0.823330000000     0.718140000000    -0.338338   
O215     O      0.034000000000     0.422440000000     0.751950000000    -0.504525   
O216     O      0.977100000000     0.416720000000     0.847650000000    -0.35051    
O217     O      0.029830000000     0.426350000000     0.077350000000    -0.327902   
O218     O      0.967310000000     0.425700000000     0.989360000000    -0.517435   
O219     O      0.975520000000     0.455890000000     0.169920000000    -0.611464   
O220     O      0.975990000000     0.889350000000     0.165780000000    -0.463909   
O221     O      0.424160000000     0.457520000000     0.762740000000    -0.475406   
O222     O      0.919590000000     0.887750000000     0.081110000000    -0.621834   
O223     O      0.924560000000     0.883310000000     0.757880000000    -0.621598   
O224     O      0.419280000000     0.461940000000     0.085120000000    -0.470824   
O225     O      0.232580000000     0.739570000000     0.817800000000    -0.343631   
O226     O      0.270970000000     0.711540000000     0.872160000000    -0.336328   
O227     O      0.112900000000     0.744860000000     0.014770000000    -0.345525   
O228     O      0.073070000000     0.713180000000     0.969000000000    -0.33667    
O229     O      0.227220000000     0.745580000000     0.017630000000    -0.355703   
O230     O      0.268880000000     0.712280000000     0.979780000000    -0.341843   
O231     O      0.117940000000     0.739140000000     0.810510000000    -0.344747   
O232     O      0.076110000000     0.710610000000     0.857050000000    -0.336004   
O233     O      0.174230000000     0.780990000000     0.832600000000    -0.330978   
O234     O      0.177420000000     0.719570000000     0.738970000000    -0.517118   
O235     O      0.169420000000     0.784840000000     0.999230000000    -0.505081   
O236     O      0.169050000000     0.728680000000     0.097400000000    -0.341622   
O237     O      0.205940000000     0.726600000000     0.919580000000    -0.465618   
O238     O      0.139390000000     0.726600000000     0.915370000000    -0.610242   
O239     O      0.116810000000     0.600980000000     0.821800000000    -0.352117   
O240     O      0.075340000000     0.633160000000     0.862750000000    -0.33874    
O241     O      0.226640000000     0.604130000000     0.026720000000    -0.344938   
O242     O      0.268540000000     0.634800000000     0.984170000000    -0.338844   
O243     O      0.112000000000     0.606150000000     0.023900000000    -0.34572    
O244     O      0.072490000000     0.635530000000     0.973750000000    -0.332722   
O245     O      0.231300000000     0.598400000000     0.833960000000    -0.342671   
O246     O      0.271290000000     0.632320000000     0.875030000000    -0.338333   
O247     O      0.172170000000     0.560600000000     0.841260000000    -0.504525   
O248     O      0.177890000000     0.617500000000     0.745540000000    -0.350463   
O249     O      0.168270000000     0.564800000000     0.015860000000    -0.328017   
O250     O      0.168920000000     0.627320000000     0.103830000000    -0.517516   
O251     O      0.138730000000     0.619100000000     0.923280000000    -0.61131    
O252     O      0.205270000000     0.618630000000     0.927410000000    -0.463879   
O253     O      0.137090000000     0.670440000000     0.830440000000    -0.475381   
O254     O      0.206880000000     0.675030000000     0.012060000000    -0.62192    
O255     O      0.211300000000     0.670040000000     0.835290000000    -0.621777   
O256     O      0.132680000000     0.675340000000     0.008060000000    -0.47078    
O257     O      0.855030000000     0.362030000000     0.275350000000    -0.343503   
O258     O      0.883080000000     0.323640000000     0.220990000000    -0.336254   
O259     O      0.849770000000     0.981720000000     0.578400000000    -0.345434   
O260     O      0.881450000000     0.021550000000     0.624190000000    -0.33652    
O261     O      0.849040000000     0.367400000000     0.575510000000    -0.355589   
O262     O      0.882340000000     0.325740000000     0.613370000000    -0.341898   
O263     O      0.855460000000     0.976670000000     0.282660000000    -0.344766   
O264     O      0.884010000000     0.018500000000     0.236140000000    -0.336006   
O265     O      0.813610000000     0.420370000000     0.260540000000    -0.331081   
O266     O      0.875020000000     0.917180000000     0.354190000000    -0.517474   
O267     O      0.809780000000     0.425210000000     0.593910000000    -0.50529    
O268     O      0.865950000000     0.925580000000     0.495760000000    -0.341501   
O269     O      0.868020000000     0.388680000000     0.173580000000    -0.465689   
O270     O      0.868020000000     0.955230000000     0.177800000000    -0.610315   
O271     O      0.493630000000     0.977800000000     0.271410000000    -0.352129   
O272     O      0.461450000000     0.019270000000     0.230460000000    -0.338699   
O273     O      0.490500000000     0.367990000000     0.566470000000    -0.344814   
O274     O      0.459820000000     0.326070000000     0.608990000000    -0.338706   
O275     O      0.488480000000     0.982620000000     0.569310000000    -0.345759   
O276     O      0.459090000000     0.022130000000     0.619450000000    -0.332652   
O277     O      0.496200000000     0.363310000000     0.259230000000    -0.342691   
O278     O      0.462290000000     0.323320000000     0.218140000000    -0.33834    
O279     O      0.534000000000     0.922440000000     0.251950000000    -0.504653   
O280     O      0.477100000000     0.916720000000     0.347650000000    -0.35047    
O281     O      0.529830000000     0.926350000000     0.577350000000    -0.328      
O282     O      0.467310000000     0.925710000000     0.489360000000    -0.517521   
O283     O      0.475520000000     0.955890000000     0.669920000000    -0.611445   
O284     O      0.475980000000     0.389350000000     0.665780000000    -0.463937   
O285     O      0.924170000000     0.957520000000     0.262740000000    -0.475366   
O286     O      0.419600000000     0.387750000000     0.581120000000    -0.62177    
O287     O      0.424560000000     0.383310000000     0.257880000000    -0.621716   
O288     O      0.919280000000     0.961940000000     0.585120000000    -0.470817   
O289     O      0.732580000000     0.239570000000     0.317800000000    -0.343597   
O290     O      0.770970000000     0.211540000000     0.372160000000    -0.336322   
O291     O      0.612900000000     0.244860000000     0.514770000000    -0.34545    
O292     O      0.573070000000     0.213170000000     0.469000000000    -0.336538   
O293     O      0.727220000000     0.245580000000     0.517630000000    -0.355626   
O294     O      0.768880000000     0.212270000000     0.479770000000    -0.341771   
O295     O      0.617940000000     0.239140000000     0.310510000000    -0.34485    
O296     O      0.576110000000     0.210610000000     0.357050000000    -0.336037   
O297     O      0.674230000000     0.281000000000     0.332600000000    -0.331026   
O298     O      0.677420000000     0.219570000000     0.238970000000    -0.517573   
O299     O      0.669420000000     0.284840000000     0.499240000000    -0.505106   
O300     O      0.669050000000     0.228680000000     0.597400000000    -0.341581   
O301     O      0.705940000000     0.226600000000     0.419580000000    -0.465638   
O302     O      0.639390000000     0.226600000000     0.415370000000    -0.610336   
O303     O      0.616810000000     0.100980000000     0.321800000000    -0.352114   
O304     O      0.575340000000     0.133160000000     0.362750000000    -0.338749   
O305     O      0.726640000000     0.104130000000     0.526720000000    -0.344929   
O306     O      0.768540000000     0.134800000000     0.484170000000    -0.338863   
O307     O      0.612000000000     0.106150000000     0.523900000000    -0.345719   
O308     O      0.572490000000     0.135530000000     0.473750000000    -0.33273    
O309     O      0.731300000000     0.098400000000     0.333960000000    -0.342675   
O310     O      0.771290000000     0.132320000000     0.375030000000    -0.338338   
O311     O      0.672170000000     0.060600000000     0.341260000000    -0.504526   
O312     O      0.677880000000     0.117500000000     0.245540000000    -0.350567   
O313     O      0.668270000000     0.064800000000     0.515860000000    -0.327996   
O314     O      0.668930000000     0.127320000000     0.603830000000    -0.517513   
O315     O      0.638730000000     0.119100000000     0.423280000000    -0.611318   
O316     O      0.705270000000     0.118630000000     0.427410000000    -0.463892   
O317     O      0.637090000000     0.170440000000     0.330440000000    -0.475373   
O318     O      0.706880000000     0.175030000000     0.512060000000    -0.621901   
O319     O      0.711300000000     0.170040000000     0.335290000000    -0.621677   
O320     O      0.632680000000     0.175340000000     0.508060000000    -0.470758   
O321     O      0.855030000000     0.362030000000     0.775350000000    -0.343505   
O322     O      0.883080000000     0.323640000000     0.720990000000    -0.336259   
O323     O      0.849770000000     0.981720000000     0.078400000000    -0.345447   
O324     O      0.881450000000     0.021550000000     0.124180000000    -0.336587   
O325     O      0.849040000000     0.367400000000     0.075510000000    -0.355592   
O326     O      0.882340000000     0.325740000000     0.113370000000    -0.341898   
O327     O      0.855460000000     0.976670000000     0.782660000000    -0.344767   
O328     O      0.884010000000     0.018500000000     0.736140000000    -0.336001   
O329     O      0.813610000000     0.420370000000     0.760540000000    -0.331084   
O330     O      0.875020000000     0.917180000000     0.854190000000    -0.517654   
O331     O      0.809780000000     0.425210000000     0.093910000000    -0.505289   
O332     O      0.865950000000     0.925580000000     0.995760000000    -0.341484   
O333     O      0.868020000000     0.388680000000     0.673580000000    -0.465689   
O334     O      0.868020000000     0.955230000000     0.677800000000    -0.610315   
O335     O      0.493630000000     0.977800000000     0.771410000000    -0.35213    
O336     O      0.461450000000     0.019270000000     0.730460000000    -0.338701   
O337     O      0.490500000000     0.367990000000     0.066470000000    -0.344808   
O338     O      0.459820000000     0.326070000000     0.108990000000    -0.338708   
O339     O      0.488480000000     0.982620000000     0.069310000000    -0.345748   
O340     O      0.459090000000     0.022130000000     0.119450000000    -0.332647   
O341     O      0.496200000000     0.363310000000     0.759220000000    -0.342716   
O342     O      0.462290000000     0.323320000000     0.718140000000    -0.338352   
O343     O      0.534000000000     0.922440000000     0.751950000000    -0.504652   
O344     O      0.477100000000     0.916720000000     0.847650000000    -0.350474   
O345     O      0.529830000000     0.926350000000     0.077350000000    -0.327992   
O346     O      0.467310000000     0.925710000000     0.989360000000    -0.517444   
O347     O      0.475520000000     0.955890000000     0.169920000000    -0.611483   
O348     O      0.475980000000     0.389350000000     0.165780000000    -0.463974   
O349     O      0.924170000000     0.957520000000     0.762740000000    -0.475368   
O350     O      0.419600000000     0.387750000000     0.081110000000    -0.621837   
O351     O      0.424560000000     0.383310000000     0.757880000000    -0.62172    
O352     O      0.919280000000     0.961940000000     0.085120000000    -0.470808   
O353     O      0.732580000000     0.239570000000     0.817800000000    -0.343598   
O354     O      0.770970000000     0.211540000000     0.872160000000    -0.336328   
O355     O      0.612900000000     0.244860000000     0.014770000000    -0.345469   
O356     O      0.573070000000     0.213170000000     0.969000000000    -0.336522   
O357     O      0.727220000000     0.245580000000     0.017630000000    -0.355662   
O358     O      0.768880000000     0.212270000000     0.979780000000    -0.341783   
O359     O      0.617940000000     0.239140000000     0.810510000000    -0.344851   
O360     O      0.576110000000     0.210610000000     0.857050000000    -0.336037   
O361     O      0.674230000000     0.281000000000     0.832600000000    -0.331025   
O362     O      0.677420000000     0.219570000000     0.738970000000    -0.517573   
O363     O      0.669420000000     0.284840000000     0.999230000000    -0.505085   
O364     O      0.669050000000     0.228680000000     0.097400000000    -0.341635   
O365     O      0.705940000000     0.226600000000     0.919580000000    -0.465606   
O366     O      0.639390000000     0.226600000000     0.915370000000    -0.610296   
O367     O      0.616810000000     0.100980000000     0.821800000000    -0.352114   
O368     O      0.575340000000     0.133160000000     0.862750000000    -0.33875    
O369     O      0.726640000000     0.104130000000     0.026720000000    -0.344926   
O370     O      0.768540000000     0.134800000000     0.984170000000    -0.338841   
O371     O      0.612000000000     0.106150000000     0.023900000000    -0.345716   
O372     O      0.572490000000     0.135530000000     0.973750000000    -0.332711   
O373     O      0.731300000000     0.098400000000     0.833960000000    -0.342675   
O374     O      0.771290000000     0.132320000000     0.875030000000    -0.338338   
O375     O      0.672170000000     0.060600000000     0.841260000000    -0.504526   
O376     O      0.677880000000     0.117500000000     0.745540000000    -0.350567   
O377     O      0.668270000000     0.064800000000     0.015860000000    -0.328012   
O378     O      0.668930000000     0.127320000000     0.103830000000    -0.517512   
O379     O      0.638730000000     0.119100000000     0.923280000000    -0.611311   
O380     O      0.705270000000     0.118630000000     0.927410000000    -0.463882   
O381     O      0.637090000000     0.170440000000     0.830440000000    -0.475374   
O382     O      0.706880000000     0.175030000000     0.012060000000    -0.621918   
O383     O      0.711300000000     0.170040000000     0.835290000000    -0.621676   
O384     O      0.632680000000     0.175340000000     0.008060000000    -0.470777   
O385     O      0.855030000000     0.862030000000     0.275350000000    -0.343573   
O386     O      0.883080000000     0.823640000000     0.220990000000    -0.33627    
O387     O      0.849770000000     0.481720000000     0.578400000000    -0.345404   
O388     O      0.881450000000     0.521550000000     0.624190000000    -0.336532   
O389     O      0.849040000000     0.867400000000     0.575510000000    -0.355585   
O390     O      0.882340000000     0.825740000000     0.613370000000    -0.341899   
O391     O      0.855460000000     0.476670000000     0.282660000000    -0.344809   
O392     O      0.884010000000     0.518500000000     0.236140000000    -0.336026   
O393     O      0.813610000000     0.920380000000     0.260540000000    -0.331025   
O394     O      0.875020000000     0.417180000000     0.354190000000    -0.517478   
O395     O      0.809780000000     0.925210000000     0.593910000000    -0.50529    
O396     O      0.865950000000     0.425580000000     0.495760000000    -0.341504   
O397     O      0.868020000000     0.888680000000     0.173580000000    -0.465741   
O398     O      0.868020000000     0.455220000000     0.177800000000    -0.61028    
O399     O      0.493630000000     0.477800000000     0.271410000000    -0.352099   
O400     O      0.461450000000     0.519270000000     0.230460000000    -0.338701   
O401     O      0.490500000000     0.867990000000     0.566470000000    -0.344842   
O402     O      0.459820000000     0.826080000000     0.608990000000    -0.338787   
O403     O      0.488480000000     0.482620000000     0.569310000000    -0.345733   
O404     O      0.459090000000     0.522130000000     0.619450000000    -0.332656   
O405     O      0.496200000000     0.863310000000     0.259230000000    -0.342707   
O406     O      0.462290000000     0.823330000000     0.218140000000    -0.33842    
O407     O      0.534000000000     0.422440000000     0.251950000000    -0.5046     
O408     O      0.477100000000     0.416720000000     0.347650000000    -0.350472   
O409     O      0.529830000000     0.426350000000     0.577350000000    -0.327994   
O410     O      0.467310000000     0.425700000000     0.489360000000    -0.517518   
O411     O      0.475520000000     0.455890000000     0.669920000000    -0.611441   
O412     O      0.475980000000     0.889350000000     0.665780000000    -0.463929   
O413     O      0.924170000000     0.457520000000     0.262740000000    -0.475404   
O414     O      0.419600000000     0.887750000000     0.581120000000    -0.621766   
O415     O      0.424560000000     0.883310000000     0.257880000000    -0.62161    
O416     O      0.919280000000     0.461940000000     0.585120000000    -0.470819   
O417     O      0.732580000000     0.739570000000     0.317800000000    -0.343564   
O418     O      0.770970000000     0.711540000000     0.372160000000    -0.336312   
O419     O      0.612900000000     0.744860000000     0.514770000000    -0.345494   
O420     O      0.573070000000     0.713180000000     0.469000000000    -0.33668    
O421     O      0.727220000000     0.745580000000     0.517630000000    -0.355666   
O422     O      0.768880000000     0.712280000000     0.479770000000    -0.341832   
O423     O      0.617940000000     0.739140000000     0.310510000000    -0.344816   
O424     O      0.576110000000     0.710610000000     0.357050000000    -0.336024   
O425     O      0.674230000000     0.780990000000     0.332600000000    -0.330981   
O426     O      0.677420000000     0.719570000000     0.238970000000    -0.517113   
O427     O      0.669420000000     0.784840000000     0.499240000000    -0.505102   
O428     O      0.669050000000     0.728680000000     0.597400000000    -0.341572   
O429     O      0.705940000000     0.726600000000     0.419580000000    -0.465616   
O430     O      0.639390000000     0.726600000000     0.415370000000    -0.610321   
O431     O      0.616810000000     0.600980000000     0.321800000000    -0.352114   
O432     O      0.575340000000     0.633160000000     0.362750000000    -0.338748   
O433     O      0.726640000000     0.604130000000     0.526720000000    -0.34493    
O434     O      0.768540000000     0.634800000000     0.484170000000    -0.338867   
O435     O      0.612000000000     0.606150000000     0.523900000000    -0.34572    
O436     O      0.572490000000     0.635530000000     0.473750000000    -0.332735   
O437     O      0.731300000000     0.598400000000     0.333960000000    -0.342674   
O438     O      0.771290000000     0.632320000000     0.375030000000    -0.338336   
O439     O      0.672170000000     0.560600000000     0.341260000000    -0.504523   
O440     O      0.677880000000     0.617500000000     0.245540000000    -0.350567   
O441     O      0.668270000000     0.564800000000     0.515860000000    -0.327999   
O442     O      0.668930000000     0.627320000000     0.603830000000    -0.517515   
O443     O      0.638730000000     0.619100000000     0.423280000000    -0.611316   
O444     O      0.705270000000     0.618630000000     0.427410000000    -0.46389    
O445     O      0.637090000000     0.670440000000     0.330440000000    -0.475422   
O446     O      0.706880000000     0.675030000000     0.512060000000    -0.621902   
O447     O      0.711300000000     0.670040000000     0.335290000000    -0.621735   
O448     O      0.632680000000     0.675340000000     0.508060000000    -0.470766   
O449     O      0.855030000000     0.862030000000     0.775350000000    -0.343575   
O450     O      0.883080000000     0.823640000000     0.720990000000    -0.336275   
O451     O      0.849770000000     0.481720000000     0.078400000000    -0.345418   
O452     O      0.881450000000     0.521550000000     0.124180000000    -0.336599   
O453     O      0.849040000000     0.867400000000     0.075510000000    -0.355588   
O454     O      0.882340000000     0.825740000000     0.113370000000    -0.3419     
O455     O      0.855460000000     0.476670000000     0.782660000000    -0.34481    
O456     O      0.884010000000     0.518500000000     0.736140000000    -0.336021   
O457     O      0.813610000000     0.920380000000     0.760540000000    -0.331028   
O458     O      0.875020000000     0.417180000000     0.854190000000    -0.517658   
O459     O      0.809780000000     0.925210000000     0.093910000000    -0.505289   
O460     O      0.865950000000     0.425580000000     0.995760000000    -0.341486   
O461     O      0.868020000000     0.888680000000     0.673580000000    -0.465741   
O462     O      0.868020000000     0.455220000000     0.677800000000    -0.61028    
O463     O      0.493630000000     0.477800000000     0.771410000000    -0.352099   
O464     O      0.461450000000     0.519270000000     0.730460000000    -0.338702   
O465     O      0.490500000000     0.867990000000     0.066470000000    -0.344835   
O466     O      0.459820000000     0.826080000000     0.108990000000    -0.33879    
O467     O      0.488480000000     0.482620000000     0.069310000000    -0.345722   
O468     O      0.459090000000     0.522130000000     0.119450000000    -0.332651   
O469     O      0.496200000000     0.863310000000     0.759220000000    -0.342731   
O470     O      0.462290000000     0.823330000000     0.718140000000    -0.338433   
O471     O      0.534000000000     0.422440000000     0.751950000000    -0.504599   
O472     O      0.477100000000     0.416720000000     0.847650000000    -0.350475   
O473     O      0.529830000000     0.426350000000     0.077350000000    -0.327986   
O474     O      0.467310000000     0.425700000000     0.989360000000    -0.517441   
O475     O      0.475520000000     0.455890000000     0.169920000000    -0.611479   
O476     O      0.475980000000     0.889350000000     0.165780000000    -0.463966   
O477     O      0.924170000000     0.457520000000     0.762740000000    -0.475406   
O478     O      0.419600000000     0.887750000000     0.081110000000    -0.621833   
O479     O      0.424560000000     0.883310000000     0.757880000000    -0.621615   
O480     O      0.919280000000     0.461940000000     0.085120000000    -0.47081    
O481     O      0.732580000000     0.739570000000     0.817800000000    -0.343565   
O482     O      0.770970000000     0.711540000000     0.872160000000    -0.336319   
O483     O      0.612900000000     0.744860000000     0.014770000000    -0.345513   
O484     O      0.573070000000     0.713180000000     0.969000000000    -0.336663   
O485     O      0.727220000000     0.745580000000     0.017630000000    -0.355701   
O486     O      0.768880000000     0.712280000000     0.979780000000    -0.341843   
O487     O      0.617940000000     0.739140000000     0.810510000000    -0.344816   
O488     O      0.576110000000     0.710610000000     0.857050000000    -0.336025   
O489     O      0.674230000000     0.780990000000     0.832600000000    -0.330981   
O490     O      0.677420000000     0.719570000000     0.738970000000    -0.517113   
O491     O      0.669420000000     0.784840000000     0.999230000000    -0.505081   
O492     O      0.669050000000     0.728680000000     0.097400000000    -0.341626   
O493     O      0.705940000000     0.726600000000     0.919580000000    -0.465584   
O494     O      0.639390000000     0.726600000000     0.915370000000    -0.610282   
O495     O      0.616810000000     0.600980000000     0.821800000000    -0.352114   
O496     O      0.575340000000     0.633160000000     0.862750000000    -0.338749   
O497     O      0.726640000000     0.604130000000     0.026720000000    -0.344927   
O498     O      0.768540000000     0.634800000000     0.984170000000    -0.338845   
O499     O      0.612000000000     0.606150000000     0.023900000000    -0.345717   
O500     O      0.572490000000     0.635530000000     0.973750000000    -0.332716   
O501     O      0.731300000000     0.598400000000     0.833960000000    -0.342674   
O502     O      0.771290000000     0.632320000000     0.875030000000    -0.338336   
O503     O      0.672170000000     0.560600000000     0.841260000000    -0.504523   
O504     O      0.677880000000     0.617500000000     0.745540000000    -0.350567   
O505     O      0.668270000000     0.564800000000     0.015860000000    -0.328015   
O506     O      0.668930000000     0.627320000000     0.103830000000    -0.517513   
O507     O      0.638730000000     0.619100000000     0.923280000000    -0.611309   
O508     O      0.705270000000     0.618630000000     0.927410000000    -0.46388    
O509     O      0.637090000000     0.670440000000     0.830440000000    -0.475423   
O510     O      0.706880000000     0.675030000000     0.012060000000    -0.62192    
O511     O      0.711300000000     0.670040000000     0.835290000000    -0.621735   
O512     O      0.632680000000     0.675340000000     0.008060000000    -0.470785   
Zr1      Zr     0.375620000000     0.420020000000     0.256630000000     1.28945    
Zr2      Zr     0.371210000000     0.424230000000     0.594090000000     1.29086    
Zr3      Zr     0.972620000000     0.920750000000     0.249450000000     1.28747    
Zr4      Zr     0.968100000000     0.924740000000     0.587010000000     1.29067    
Zr5      Zr     0.922100000000     0.358170000000     0.667790000000     1.26246    
Zr6      Zr     0.421610000000     0.986950000000     0.175590000000     1.25599    
Zr7      Zr     0.174600000000     0.218990000000     0.336530000000     1.28927    
Zr8      Zr     0.170400000000     0.223420000000     0.499070000000     1.29086    
Zr9      Zr     0.173860000000     0.121990000000     0.343740000000     1.28749    
Zr10     Zr     0.169880000000     0.126520000000     0.506180000000     1.2908     
Zr11     Zr     0.236450000000     0.172510000000     0.425380000000     1.26259    
Zr12     Zr     0.107660000000     0.173000000000     0.417600000000     1.25605    
Zr13     Zr     0.375620000000     0.420020000000     0.756630000000     1.28946    
Zr14     Zr     0.371210000000     0.424230000000     0.094090000000     1.29085    
Zr15     Zr     0.972620000000     0.920750000000     0.749450000000     1.28748    
Zr16     Zr     0.968100000000     0.924740000000     0.087020000000     1.29063    
Zr17     Zr     0.922100000000     0.358170000000     0.167790000000     1.26241    
Zr18     Zr     0.421610000000     0.986950000000     0.675590000000     1.25601    
Zr19     Zr     0.174600000000     0.218990000000     0.836530000000     1.28927    
Zr20     Zr     0.170400000000     0.223420000000     0.999080000000     1.29091    
Zr21     Zr     0.173860000000     0.121990000000     0.843740000000     1.28749    
Zr22     Zr     0.169880000000     0.126520000000     0.006180000000     1.29078    
Zr23     Zr     0.236450000000     0.172510000000     0.925380000000     1.2626     
Zr24     Zr     0.107660000000     0.173000000000     0.917600000000     1.25607    
Zr25     Zr     0.375620000000     0.920010000000     0.256630000000     1.28938    
Zr26     Zr     0.371210000000     0.924230000000     0.594090000000     1.29082    
Zr27     Zr     0.972620000000     0.420750000000     0.249450000000     1.28747    
Zr28     Zr     0.968100000000     0.424740000000     0.587010000000     1.29066    
Zr29     Zr     0.922100000000     0.858170000000     0.667790000000     1.26252    
Zr30     Zr     0.421610000000     0.486950000000     0.175590000000     1.25599    
Zr31     Zr     0.174600000000     0.718980000000     0.336530000000     1.28923    
Zr32     Zr     0.170400000000     0.723420000000     0.499070000000     1.29087    
Zr33     Zr     0.173860000000     0.621990000000     0.343740000000     1.28747    
Zr34     Zr     0.169880000000     0.626520000000     0.506180000000     1.2908     
Zr35     Zr     0.236450000000     0.672510000000     0.425380000000     1.26256    
Zr36     Zr     0.107660000000     0.673000000000     0.417600000000     1.25603    
Zr37     Zr     0.375620000000     0.920010000000     0.756630000000     1.28939    
Zr38     Zr     0.371210000000     0.924230000000     0.094090000000     1.29081    
Zr39     Zr     0.972620000000     0.420750000000     0.749450000000     1.28747    
Zr40     Zr     0.968100000000     0.424740000000     0.087020000000     1.29063    
Zr41     Zr     0.922100000000     0.858170000000     0.167790000000     1.26246    
Zr42     Zr     0.421610000000     0.486950000000     0.675590000000     1.256      
Zr43     Zr     0.174600000000     0.718980000000     0.836530000000     1.28923    
Zr44     Zr     0.170400000000     0.723420000000     0.999080000000     1.29092    
Zr45     Zr     0.173860000000     0.621990000000     0.843740000000     1.28747    
Zr46     Zr     0.169880000000     0.626520000000     0.006180000000     1.29078    
Zr47     Zr     0.236450000000     0.672510000000     0.925380000000     1.26256    
Zr48     Zr     0.107660000000     0.673000000000     0.917600000000     1.25604    
Zr49     Zr     0.875620000000     0.420020000000     0.256630000000     1.28935    
Zr50     Zr     0.871210000000     0.424230000000     0.594090000000     1.29091    
Zr51     Zr     0.472620000000     0.920750000000     0.249450000000     1.28753    
Zr52     Zr     0.468100000000     0.924740000000     0.587010000000     1.29085    
Zr53     Zr     0.422100000000     0.358170000000     0.667790000000     1.26256    
Zr54     Zr     0.921610000000     0.986950000000     0.175590000000     1.25596    
Zr55     Zr     0.674590000000     0.218990000000     0.336530000000     1.28927    
Zr56     Zr     0.670400000000     0.223420000000     0.499070000000     1.29086    
Zr57     Zr     0.673860000000     0.121990000000     0.343740000000     1.2875     
Zr58     Zr     0.669880000000     0.126520000000     0.506180000000     1.2908     
Zr59     Zr     0.736450000000     0.172510000000     0.425380000000     1.2626     
Zr60     Zr     0.607660000000     0.173000000000     0.417600000000     1.25604    
Zr61     Zr     0.875620000000     0.420020000000     0.756630000000     1.28936    
Zr62     Zr     0.871210000000     0.424230000000     0.094090000000     1.2909     
Zr63     Zr     0.472620000000     0.920750000000     0.749450000000     1.28753    
Zr64     Zr     0.468100000000     0.924740000000     0.087020000000     1.29082    
Zr65     Zr     0.422100000000     0.358170000000     0.167790000000     1.26251    
Zr66     Zr     0.921610000000     0.986950000000     0.675590000000     1.25597    
Zr67     Zr     0.674590000000     0.218990000000     0.836530000000     1.28927    
Zr68     Zr     0.670400000000     0.223420000000     0.999080000000     1.29091    
Zr69     Zr     0.673860000000     0.121990000000     0.843740000000     1.2875     
Zr70     Zr     0.669880000000     0.126520000000     0.006180000000     1.29078    
Zr71     Zr     0.736450000000     0.172510000000     0.925380000000     1.26261    
Zr72     Zr     0.607660000000     0.173000000000     0.917600000000     1.25605    
Zr73     Zr     0.875620000000     0.920010000000     0.256630000000     1.28928    
Zr74     Zr     0.871210000000     0.924230000000     0.594090000000     1.29087    
Zr75     Zr     0.472620000000     0.420750000000     0.249450000000     1.28752    
Zr76     Zr     0.468100000000     0.424740000000     0.587010000000     1.29084    
Zr77     Zr     0.422100000000     0.858170000000     0.667790000000     1.26262    
Zr78     Zr     0.921610000000     0.486950000000     0.175590000000     1.25596    
Zr79     Zr     0.674590000000     0.718980000000     0.336530000000     1.28923    
Zr80     Zr     0.670400000000     0.723420000000     0.499070000000     1.29087    
Zr81     Zr     0.673860000000     0.621990000000     0.343740000000     1.28749    
Zr82     Zr     0.669880000000     0.626520000000     0.506180000000     1.2908     
Zr83     Zr     0.736450000000     0.672510000000     0.425380000000     1.26257    
Zr84     Zr     0.607660000000     0.673000000000     0.417600000000     1.25601    
Zr85     Zr     0.875620000000     0.920010000000     0.756630000000     1.28929    
Zr86     Zr     0.871210000000     0.924230000000     0.094090000000     1.29085    
Zr87     Zr     0.472620000000     0.420750000000     0.749450000000     1.28753    
Zr88     Zr     0.468100000000     0.424740000000     0.087020000000     1.29081    
Zr89     Zr     0.422100000000     0.858170000000     0.167790000000     1.26256    
Zr90     Zr     0.921610000000     0.486950000000     0.675590000000     1.25597    
Zr91     Zr     0.674590000000     0.718980000000     0.836530000000     1.28924    
Zr92     Zr     0.670400000000     0.723420000000     0.999080000000     1.29092    
Zr93     Zr     0.673860000000     0.621990000000     0.843740000000     1.28749    
Zr94     Zr     0.669880000000     0.626520000000     0.006180000000     1.29078    
Zr95     Zr     0.736450000000     0.672510000000     0.925380000000     1.26257    
Zr96     Zr     0.607660000000     0.673000000000     0.917600000000     1.25603    


