data_structure

_audit_creation_method RASPA-1.0
_audit_creation_date 2023-6-4
_audit_author_name 'Poobodin Mano'

_cell_length_a    42.7966
_cell_length_b    45.6234
_cell_length_c    47.2105
_cell_angle_alpha 82.781
_cell_angle_beta  96.3082
_cell_angle_gamma 119.44
_cell_volume      79516.7

_symmetry_cell_setting          triclinic
_symmetry_space_group_name_Hall 'P 1'
_symmetry_space_group_name_H-M  'P 1'
_symmetry_Int_Tables_number     1

_symmetry_equiv_pos_as_xyz 'x,y,z'

loop_
_atom_site_label
_atom_site_type_symbol
_atom_site_fract_x
_atom_site_fract_y
_atom_site_fract_z
_atom_site_charge
C1       C      0.101560000000     0.063030000000     0.013790000000     0.398489   
C2       C      0.957600000000     0.976300000000     0.878510000000     0.395829   
C3       C      0.033180000000     0.102390000000     0.973720000000     0.400183   
C4       C      0.026560000000     0.921870000000     0.942760000000     0.382767   
C5       C      0.938540000000     0.862080000000     0.986840000000     0.422362   
C6       C      0.936130000000     0.019870000000     0.038480000000     0.369482   
C7       C      0.865640000000     0.900570000000     0.946840000000     0.391994   
C8       C      0.006350000000     0.987390000000     0.082960000000     0.405508   
C9       C      0.012370000000     0.914930000000     0.437890000000     0.394941   
C10      C      0.869930000000     0.975220000000     0.460190000000     0.416349   
C11      C      0.008300000000     0.994410000000     0.381330000000     0.428649   
C12      C      0.879800000000     0.896390000000     0.518120000000     0.410683   
C13      C      0.968300000000     0.978120000000     0.580960000000     0.417534   
C14      C      0.097610000000     0.081520000000     0.441640000000     0.415092   
C15      C      0.960690000000     0.064350000000     0.520090000000     0.394559   
C16      C      0.110900000000     0.008760000000     0.501420000000     0.424935   
C17      C      0.014840000000     0.393780000000     0.979130000000     0.421158   
C18      C      0.896070000000     0.493170000000     0.014110000000     0.426704   
C19      C      0.902600000000     0.381750000000     0.933010000000     0.392715   
C20      C      0.003400000000     0.486930000000     0.079800000000     0.430729   
C21      C      0.071030000000     0.588740000000     0.018810000000     0.423119   
C22      C      0.976880000000     0.485840000000     0.874610000000     0.426187   
C23      C      0.954480000000     0.570940000000     0.976470000000     0.412031   
C24      C      0.072810000000     0.492860000000     0.922510000000     0.380449   
C25      C      0.963720000000     0.371580000000     0.495690000000     0.418606   
C26      C      0.893280000000     0.510350000000     0.504600000000     0.427205   
C27      C      0.891400000000     0.383670000000     0.437350000000     0.424377   
C28      C      0.977800000000     0.496780000000     0.575360000000     0.401531   
C29      C      0.071800000000     0.585100000000     0.519630000000     0.396456   
C30      C      0.994310000000     0.477200000000     0.378290000000     0.399754   
C31      C      0.996350000000     0.598350000000     0.456510000000     0.414874   
C32      C      0.067210000000     0.467100000000     0.446640000000     0.37562    
C33      C      0.363930000000     0.975250000000     0.939680000000     0.423072   
C34      C      0.507760000000     0.909480000000     0.924550000000     0.39819    
C35      C      0.370980000000     0.897840000000     0.999760000000     0.392586   
C36      C      0.505220000000     0.998860000000     0.862510000000     0.414396   
C37      C      0.592640000000     0.078610000000     0.924740000000     0.416176   
C38      C      0.460100000000     0.977590000000     0.062530000000     0.392231   
C39      C      0.599510000000     0.996920000000     0.985120000000     0.414072   
C40      C      0.459160000000     0.065150000000     0.005420000000     0.424984   
C41      C      0.510500000000     0.094880000000     0.451300000000     0.428071   
C42      C      0.362460000000     0.887430000000     0.439520000000     0.423529   
C43      C      0.429880000000     0.024800000000     0.518610000000     0.3965     
C44      C      0.448910000000     0.963670000000     0.362640000000     0.418914   
C45      C      0.527240000000     0.940640000000     0.404750000000     0.374499   
C46      C      0.512460000000     0.993380000000     0.564200000000     0.390336   
C47      C      0.437120000000     0.858930000000     0.477510000000     0.428705   
C48      C      0.596610000000     0.067670000000     0.489250000000     0.396261   
C49      C      0.466420000000     0.372700000000     0.001230000000     0.393685   
C50      C      0.395820000000     0.511870000000     0.008440000000     0.425733   
C51      C      0.389860000000     0.378860000000     0.948340000000     0.426518   
C52      C      0.481050000000     0.501150000000     0.077290000000     0.39753    
C53      C      0.574620000000     0.589350000000     0.014290000000     0.418705   
C54      C      0.487900000000     0.471260000000     0.880350000000     0.423519   
C55      C      0.495510000000     0.597320000000     0.955390000000     0.417117   
C56      C      0.565160000000     0.465210000000     0.946510000000     0.382913   
C57      C      0.505260000000     0.394730000000     0.475000000000     0.400225   
C58      C      0.395920000000     0.497950000000     0.517880000000     0.431085   
C59      C      0.400260000000     0.390500000000     0.430860000000     0.394414   
C60      C      0.498520000000     0.483280000000     0.582070000000     0.399124   
C61      C      0.570700000000     0.589720000000     0.525070000000     0.393068   
C62      C      0.476990000000     0.497080000000     0.375630000000     0.423694   
C63      C      0.452830000000     0.574110000000     0.483610000000     0.404537   
C64      C      0.571660000000     0.499490000000     0.423680000000     0.378758   
C65      C      0.495300000000     0.441270000000     0.813510000000    -0.215288   
C66      C      0.500630000000     0.504970000000     0.626090000000     0.0756069  
C67      C      0.503990000000     0.454540000000     0.626640000000     0.0715552  
C68      C      0.502680000000     0.502700000000     0.655920000000    -0.0897879  
C69      C      0.528690000000     0.500900000000     0.718250000000    -0.039081   
C70      C      0.527700000000     0.499040000000     0.747870000000    -0.0235326  
C71      C      0.506240000000     0.472530000000     0.703130000000    -0.00119851 
C72      C      0.505640000000     0.451300000000     0.656510000000    -0.0917378  
C73      C      0.503930000000     0.468860000000     0.763040000000    -0.0259246  
C74      C      0.499010000000     0.495830000000     0.803780000000    -0.12673    
C75      C      0.482640000000     0.440000000000     0.748070000000    -0.0226621  
C76      C      0.494930000000     0.495900000000     0.832530000000     0.0937776  
C77      C      0.491180000000     0.442020000000     0.842450000000     0.411192   
C78      C      0.483860000000     0.441810000000     0.718360000000    -0.0377485  
C79      C      0.505020000000     0.475560000000     0.671460000000     0.0501787  
C80      C      0.499590000000     0.468540000000     0.793880000000     0.108003   
C81      C      0.472570000000     0.529580000000     0.300590000000    -0.218874   
C82      C      0.478420000000     0.478940000000     0.125790000000     0.0724068  
C83      C      0.479960000000     0.531750000000     0.114580000000     0.0725926  
C84      C      0.475880000000     0.480340000000     0.154610000000    -0.0916642  
C85      C      0.447970000000     0.478780000000     0.210430000000    -0.0393834  
C86      C      0.447630000000     0.477850000000     0.240010000000    -0.0233797  
C87      C      0.471430000000     0.508500000000     0.194610000000    -0.000628308
C88      C      0.477470000000     0.533970000000     0.143520000000    -0.0879818  
C89      C      0.470540000000     0.506700000000     0.254460000000    -0.0272185  
C90      C      0.473890000000     0.477360000000     0.302120000000    -0.127527   
C91      C      0.492680000000     0.536970000000     0.238550000000    -0.0222214  
C92      C      0.475620000000     0.475510000000     0.331890000000     0.093977   
C93      C      0.473990000000     0.526930000000     0.330470000000     0.410489   
C94      C      0.493150000000     0.537860000000     0.208840000000    -0.0383345  
C95      C      0.474880000000     0.507770000000     0.163820000000     0.0493234  
C96      C      0.472300000000     0.504580000000     0.286120000000     0.10917    
C97      C      0.400950000000     0.770360000000     0.463470000000    -0.2201     
C98      C      0.431570000000     0.598320000000     0.513060000000     0.0753742  
C99      C      0.425760000000     0.607190000000     0.462610000000     0.0730777  
C100     C      0.416560000000     0.618460000000     0.516610000000    -0.0921122  
C101     C      0.418670000000     0.684840000000     0.516520000000    -0.0389084  
C102     C      0.415960000000     0.713980000000     0.516480000000    -0.0228321  
C103     C      0.398520000000     0.661390000000     0.496240000000    -0.00154007 
C104     C      0.411170000000     0.628060000000     0.465400000000    -0.0918085  
C105     C      0.393120000000     0.720360000000     0.496100000000    -0.0283595  
C106     C      0.404850000000     0.774360000000     0.514160000000    -0.130093   
C107     C      0.370590000000     0.695530000000     0.477450000000    -0.0230337  
C108     C      0.417110000000     0.808940000000     0.509030000000     0.0979613  
C109     C      0.413190000000     0.804920000000     0.458970000000     0.431805   
C110     C      0.373330000000     0.666260000000     0.477480000000    -0.0390024  
C111     C      0.407350000000     0.634580000000     0.492690000000     0.0499877  
C112     C      0.397790000000     0.754890000000     0.491260000000     0.112604   
C113     C      0.503460000000     0.171450000000     0.430410000000    -0.221468   
C114     C      0.524240000000     0.366650000000     0.447910000000     0.0722409  
C115     C      0.507400000000     0.345260000000     0.495460000000     0.0714336  
C116     C      0.530580000000     0.340240000000     0.444700000000    -0.0931729  
C117     C      0.535890000000     0.267080000000     0.485510000000    -0.0402367  
C118     C      0.536590000000     0.237650000000     0.481620000000    -0.0241441  
C119     C      0.526740000000     0.284580000000     0.462440000000    -0.0020245  
C120     C      0.512120000000     0.317630000000     0.492570000000    -0.0915698  
C121     C      0.529290000000     0.225480000000     0.454360000000    -0.0280429  
C122     C      0.548850000000     0.181950000000     0.468640000000    -0.129731   
C123     C      0.521580000000     0.243760000000     0.431080000000    -0.0232836  
C124     C      0.543250000000     0.149380000000     0.467890000000     0.0958513  
C125     C      0.499440000000     0.139340000000     0.429450000000     0.411261   
C126     C      0.519700000000     0.272540000000     0.435140000000    -0.0394847  
C127     C      0.523500000000     0.314650000000     0.466790000000     0.0483964  
C128     C      0.527720000000     0.192910000000     0.450670000000     0.108585   
C129     C      0.490880000000     0.005040000000     0.783960000000    -0.215385   
C130     C      0.512890000000     0.969620000000     0.612290000000     0.0684091  
C131     C      0.530670000000     0.027800000000     0.603540000000     0.0696335  
C132     C      0.516740000000     0.972220000000     0.641830000000    -0.090896   
C133     C      0.539950000000     0.986690000000     0.704110000000    -0.0392907  
C134     C      0.538550000000     0.987260000000     0.733570000000    -0.0247881  
C135     C      0.528690000000     0.005740000000     0.684110000000    -0.00148497 
C136     C      0.534940000000     0.031300000000     0.632980000000    -0.0900816  
C137     C      0.525810000000     0.006890000000     0.743810000000    -0.0248801  
C138     C      0.546080000000     0.003620000000     0.796040000000    -0.123621   
C139     C      0.515740000000     0.026810000000     0.723830000000    -0.0237644  
C140     C      0.540450000000     0.001710000000     0.825110000000     0.0908432  
C141     C      0.485930000000     0.003110000000     0.813030000000     0.408747   
C142     C      0.517060000000     0.026180000000     0.694450000000    -0.0381148  
C143     C      0.527360000000     0.003210000000     0.652650000000     0.0472147  
C144     C      0.521130000000     0.005360000000     0.774990000000     0.105885   
C145     C      0.428470000000     0.929280000000     0.291970000000    -0.211857   
C146     C      0.423620000000     0.971190000000     0.100490000000     0.0709112  
C147     C      0.479930000000     0.973140000000     0.111330000000     0.0699799  
C148     C      0.417720000000     0.967020000000     0.129760000000    -0.087874   
C149     C      0.423760000000     0.978560000000     0.193420000000    -0.0382171  
C150     C      0.421900000000     0.976750000000     0.223100000000    -0.0236399  
C151     C      0.438260000000     0.961360000000     0.181600000000    -0.000377696
C152     C      0.474860000000     0.968950000000     0.140560000000    -0.0888247  
C153     C      0.434400000000     0.957620000000     0.241740000000    -0.0239364  
C154     C      0.445600000000     0.988180000000     0.285610000000    -0.123754   
C155     C      0.447650000000     0.939430000000     0.229810000000    -0.0228385  
C156     C      0.449080000000     0.989120000000     0.315300000000     0.0936148  
C157     C      0.432140000000     0.930950000000     0.321720000000     0.411721   
C158     C      0.449530000000     0.941260000000     0.200180000000    -0.0375345  
C159     C      0.443430000000     0.965630000000     0.150250000000     0.0478735  
C160     C      0.435610000000     0.958160000000     0.273460000000     0.106447   
C161     C      0.510080000000     0.681960000000     0.965650000000    -0.217863   
C162     C      0.547030000000     0.887860000000     0.917350000000     0.0716078  
C163     C      0.484040000000     0.855000000000     0.908970000000     0.0757008  
C164     C      0.550960000000     0.859050000000     0.916660000000    -0.0898936  
C165     C      0.544690000000     0.788190000000     0.907100000000    -0.0395816  
C166     C      0.542860000000     0.756360000000     0.912680000000    -0.0250325  
C167     C      0.521130000000     0.795140000000     0.919870000000    -0.0019526  
C168     C      0.487000000000     0.826280000000     0.907560000000    -0.0932343  
C169     C      0.517890000000     0.731330000000     0.931480000000    -0.0258995  
C170     C      0.514290000000     0.678790000000     0.915950000000    -0.124419   
C171     C      0.494970000000     0.738800000000     0.944510000000    -0.0237007  
C172     C      0.507790000000     0.645470000000     0.922290000000     0.0911645  
C173     C      0.503600000000     0.648760000000     0.971350000000     0.416863   
C174     C      0.496620000000     0.770180000000     0.938840000000    -0.0378131  
C175     C      0.520290000000     0.827480000000     0.913380000000     0.0492084  
C176     C      0.514930000000     0.697270000000     0.937730000000     0.107487   
C177     C      0.419170000000     0.115300000000     0.023130000000    -0.21261    
C178     C      0.459330000000     0.322780000000     0.984140000000     0.0710228  
C179     C      0.454970000000     0.323840000000     0.033560000000     0.0682602  
C180     C      0.454750000000     0.290230000000     0.988620000000    -0.0919655  
C181     C      0.476430000000     0.237460000000     0.007970000000    -0.038874   
C182     C      0.476060000000     0.206600000000     0.010610000000    -0.0234554  
C183     C      0.450880000000     0.241290000000     0.021010000000    -0.00179544 
C184     C      0.450310000000     0.290960000000     0.038830000000    -0.0904352  
C185     C      0.450240000000     0.178510000000     0.026540000000    -0.0253541  
C186     C      0.483410000000     0.145960000000     0.030990000000    -0.126552   
C187     C      0.424650000000     0.182180000000     0.039860000000    -0.0238503  
C188     C      0.485140000000     0.117720000000     0.025200000000     0.0973503  
C189     C      0.421750000000     0.086820000000     0.018040000000     0.409344   
C190     C      0.425170000000     0.213490000000     0.037330000000    -0.0391781  
C191     C      0.451030000000     0.274170000000     0.016230000000     0.0477277  
C192     C      0.450500000000     0.145830000000     0.028110000000     0.106376   
C193     C      0.844500000000     0.291480000000     0.437800000000    -0.214675   
C194     C      0.633550000000     0.125080000000     0.499860000000     0.0696008  
C195     C      0.659430000000     0.095180000000     0.483580000000     0.0710517  
C196     C      0.665630000000     0.155420000000     0.496010000000    -0.0911617  
C197     C      0.739800000000     0.216350000000     0.491590000000    -0.040304   
C198     C      0.767590000000     0.247450000000     0.481630000000    -0.0245837  
C199     C      0.727020000000     0.187960000000     0.476020000000    -0.002201   
C200     C      0.691950000000     0.124780000000     0.480030000000    -0.0919268  
C201     C      0.783490000000     0.250810000000     0.456060000000    -0.0277821  
C202     C      0.802460000000     0.311060000000     0.442170000000    -0.130031   
C203     C      0.772070000000     0.222290000000     0.441110000000    -0.0239263  
C204     C      0.829450000000     0.343970000000     0.436460000000     0.0950454  
C205     C      0.871240000000     0.325080000000     0.432130000000     0.409899   
C206     C      0.743900000000     0.191200000000     0.450870000000    -0.0389609  
C207     C      0.694870000000     0.155680000000     0.484810000000     0.0475714  
C208     C      0.810380000000     0.284630000000     0.444580000000     0.107468   
C209     C      0.295600000000     0.798120000000     0.443990000000    -0.21518    
C210     C      0.092650000000     0.643810000000     0.521990000000     0.0711995  
C211     C      0.133920000000     0.622860000000     0.526270000000     0.0735931  
C212     C      0.120550000000     0.676740000000     0.516100000000    -0.0894731  
C213     C      0.174990000000     0.732410000000     0.477100000000    -0.0380734  
C214     C      0.201960000000     0.760050000000     0.461960000000    -0.0229132  
C215     C      0.183880000000     0.714730000000     0.500330000000    -0.00121383 
C216     C      0.162260000000     0.655140000000     0.520620000000    -0.0927496  
C217     C      0.238260000000     0.770100000000     0.469390000000    -0.0265456  
C218     C      0.268530000000     0.831130000000     0.453170000000    -0.126599   
C219     C      0.247250000000     0.753130000000     0.492940000000    -0.0236279  
C220     C      0.299860000000     0.860280000000     0.445320000000     0.0988955  
C221     C      0.326340000000     0.827870000000     0.435420000000     0.413926   
C222     C      0.220400000000     0.726030000000     0.508440000000    -0.0388123  
C223     C      0.155530000000     0.682340000000     0.513570000000     0.0489056  
C224     C      0.267120000000     0.799850000000     0.454280000000     0.109433   
C225     C      0.840890000000     0.553950000000     0.503760000000    -0.214981   
C226     C      0.612580000000     0.478080000000     0.435940000000     0.0704263  
C227     C      0.634330000000     0.537140000000     0.428720000000     0.0711377  
C228     C      0.646300000000     0.483460000000     0.447500000000    -0.0913232  
C229     C      0.708610000000     0.504270000000     0.492270000000    -0.0396108  
C230     C      0.740700000000     0.507740000000     0.505980000000    -0.0256273  
C231     C      0.708780000000     0.522450000000     0.465930000000    -0.00265535 
C232     C      0.668500000000     0.543460000000     0.439780000000    -0.0910438  
C233     C      0.773690000000     0.529120000000     0.493480000000    -0.0261808  
C234     C      0.802430000000     0.493820000000     0.510470000000    -0.127669   
C235     C      0.774060000000     0.548980000000     0.468040000000    -0.023811   
C236     C      0.832630000000     0.489620000000     0.513390000000     0.0958823  
C237     C      0.870980000000     0.548850000000     0.507490000000     0.410845   
C238     C      0.741870000000     0.545770000000     0.454440000000    -0.0390346  
C239     C      0.674310000000     0.516460000000     0.450520000000     0.0503483  
C240     C      0.806100000000     0.526040000000     0.503900000000     0.106367   
C241     C      0.323560000000     0.499880000000     0.550370000000    -0.216283   
C242     C      0.099060000000     0.440200000000     0.472010000000     0.072421   
C243     C      0.130350000000     0.497580000000     0.454090000000     0.0726062  
C244     C      0.130380000000     0.443210000000     0.487310000000    -0.0872645  
C245     C      0.205770000000     0.453700000000     0.505650000000    -0.0387467  
C246     C      0.240170000000     0.460410000000     0.516490000000    -0.0233003  
C247     C      0.195940000000     0.479180000000     0.502940000000    -0.00193883 
C248     C      0.162020000000     0.501380000000     0.468700000000    -0.0922893  
C249     C      0.265390000000     0.492650000000     0.524770000000    -0.0277484  
C250     C      0.319370000000     0.510750000000     0.499160000000    -0.130652   
C251     C      0.254850000000     0.517290000000     0.524300000000    -0.0250344  
C252     C      0.352110000000     0.511960000000     0.497700000000     0.101641   
C253     C      0.357410000000     0.502450000000     0.548190000000     0.408367   
C254     C      0.220270000000     0.510490000000     0.513810000000    -0.0390406  
C255     C      0.162190000000     0.474450000000     0.486460000000     0.0493972  
C256     C      0.303810000000     0.502630000000     0.525390000000     0.108041   
C257     C      0.973450000000     0.517740000000     0.799480000000    -0.222131   
C258     C      0.979600000000     0.474480000000     0.623320000000     0.0740269  
C259     C      0.979550000000     0.526800000000     0.614150000000     0.0723063  
C260     C      0.981470000000     0.476510000000     0.652570000000    -0.0962761  
C261     C      0.008070000000     0.498300000000     0.711980000000    -0.0335402  
C262     C      0.006850000000     0.495570000000     0.741600000000    -0.017314   
C263     C      0.983870000000     0.505670000000     0.694180000000    -0.00826641 
C264     C      0.981010000000     0.529430000000     0.643550000000    -0.0924161  
C265     C      0.981320000000     0.500050000000     0.754030000000    -0.0338261  
C266     C      0.982870000000     0.469700000000     0.801800000000    -0.1294     
C267     C      0.957850000000     0.508530000000     0.736190000000    -0.0219854  
C268     C      0.981540000000     0.466550000000     0.831480000000     0.0946534  
C269     C      0.972120000000     0.513940000000     0.829130000000     0.412001   
C270     C      0.959210000000     0.511440000000     0.706490000000    -0.037985   
C271     C      0.982340000000     0.504180000000     0.663000000000     0.0515034  
C272     C      0.979120000000     0.495710000000     0.785490000000     0.111366   
C273     C      0.003200000000     0.507200000000     0.152690000000    -0.217271   
C274     C      0.996000000000     0.448190000000     0.340060000000     0.0777379  
C275     C      0.001760000000     0.502900000000     0.330770000000     0.0831819  
C276     C      0.997530000000     0.446500000000     0.310860000000    -0.103383   
C277     C      0.023280000000     0.464150000000     0.248550000000    -0.0218292  
C278     C      0.025020000000     0.466490000000     0.218880000000    -0.03082    
C279     C      0.999790000000     0.471990000000     0.260250000000    -0.0226229  
C280     C      0.002980000000     0.501890000000     0.301670000000    -0.100337   
C281     C      0.003090000000     0.476470000000     0.200510000000    -0.013912   
C282     C      0.009910000000     0.457630000000     0.155030000000    -0.124696   
C283     C      0.978590000000     0.482900000000     0.212390000000    -0.0366016  
C284     C      0.010180000000     0.460910000000     0.125280000000     0.0956047  
C285     C      0.003330000000     0.509730000000     0.122950000000     0.414757   
C286     C      0.977070000000     0.480810000000     0.241920000000    -0.0276405  
C287     C      0.000340000000     0.473360000000     0.291380000000     0.0716664  
C288     C      0.005710000000     0.480560000000     0.169050000000     0.107073   
C289     C      0.663450000000     0.165790000000     0.907920000000    -0.218204   
C290     C      0.885720000000     0.330800000000     0.910960000000     0.0689395  
C291     C      0.841120000000     0.342350000000     0.923800000000     0.0699577  
C292     C      0.858930000000     0.298620000000     0.903260000000    -0.090055   
C293     C      0.762690000000     0.251270000000     0.882220000000    -0.0394387  
C294     C      0.730980000000     0.220330000000     0.881630000000    -0.024421   
C295     C      0.792870000000     0.254330000000     0.899510000000    -0.00201216 
C296     C      0.813990000000     0.311170000000     0.915610000000    -0.0902088  
C297     C      0.728430000000     0.191630000000     0.898540000000    -0.026072   
C298     C      0.686570000000     0.128150000000     0.903780000000    -0.123891   
C299     C      0.759560000000     0.193960000000     0.913970000000    -0.0246936  
C300     C      0.652490000000     0.100620000000     0.909740000000     0.0899026  
C301     C      0.630170000000     0.138080000000     0.914230000000     0.409606   
C302     C      0.791540000000     0.225070000000     0.914440000000    -0.0395521  
C303     C      0.822550000000     0.288530000000     0.905730000000     0.0471775  
C304     C      0.692410000000     0.161310000000     0.903010000000     0.105626   
C305     C      0.158520000000     0.661840000000     0.033950000000    -0.220732   
C306     C      0.313290000000     0.876240000000     0.019250000000     0.0698252  
C307     C      0.332780000000     0.838640000000     0.008500000000     0.0707049  
C308     C      0.280330000000     0.848760000000     0.027800000000    -0.0897935  
C309     C      0.240780000000     0.759510000000     0.054530000000    -0.0385788  
C310     C      0.210190000000     0.727900000000     0.057870000000    -0.0235465  
C311     C      0.239720000000     0.785440000000     0.035680000000    -0.00169397 
C312     C      0.300810000000     0.810930000000     0.017450000000    -0.0911987  
C313     C      0.177780000000     0.721250000000     0.042240000000    -0.0255698  
C314     C      0.112310000000     0.675050000000     0.041350000000    -0.122655   
C315     C      0.175800000000     0.748050000000     0.025310000000    -0.0241194  
C316     C      0.086320000000     0.641590000000     0.036330000000     0.0955184  
C317     C      0.132240000000     0.629230000000     0.028390000000     0.414019   
C318     C      0.206560000000     0.779950000000     0.022080000000    -0.0387045  
C319     C      0.274010000000     0.815640000000     0.027120000000     0.0480884  
C320     C      0.148950000000     0.685580000000     0.039770000000     0.108306   
C321     C      0.816420000000     0.500310000000     0.992130000000    -0.228402   
C322     C      0.597440000000     0.438590000000     0.971500000000     0.0735831  
C323     C      0.628560000000     0.495530000000     0.952390000000     0.0738945  
C324     C      0.629170000000     0.441600000000     0.985950000000    -0.0891294  
C325     C      0.704450000000     0.451020000000     0.001240000000    -0.0391906  
C326     C      0.739000000000     0.457130000000     0.010860000000    -0.0223921  
C327     C      0.695460000000     0.477000000000     0.999230000000    -0.00023077 
C328     C      0.660650000000     0.499330000000     0.966200000000    -0.0914016  
C329     C      0.765260000000     0.489270000000     0.018640000000    -0.0297669  
C330     C      0.825540000000     0.501380000000     0.043360000000    -0.127848   
C331     C      0.755680000000     0.514470000000     0.018950000000    -0.0220561  
C332     C      0.859190000000     0.503420000000     0.041470000000     0.0943608  
C333     C      0.849260000000     0.501610000000     0.991070000000     0.419688   
C334     C      0.720950000000     0.508310000000     0.009540000000    -0.0392164  
C335     C      0.661170000000     0.472590000000     0.984020000000     0.0510808  
C336     C      0.803330000000     0.498190000000     0.018450000000     0.112077   
C337     C      0.343960000000     0.556310000000     0.004370000000    -0.212719   
C338     C      0.115130000000     0.473610000000     0.937290000000     0.0721582  
C339     C      0.135120000000     0.532150000000     0.927090000000     0.0712101  
C340     C      0.149110000000     0.480530000000     0.949350000000    -0.0896417  
C341     C      0.211490000000     0.505870000000     0.994150000000    -0.0369057  
C342     C      0.243850000000     0.510560000000     0.008230000000    -0.0230737  
C343     C      0.211130000000     0.521770000000     0.966750000000    -0.000370193
C344     C      0.169590000000     0.539980000000     0.938560000000    -0.0905786  
C345     C      0.276560000000     0.530850000000     0.995030000000    -0.0241218  
C346     C      0.305720000000     0.496740000000     0.015310000000    -0.12602    
C347     C      0.276390000000     0.548590000000     0.968410000000    -0.0225474  
C348     C      0.335910000000     0.492510000000     0.018810000000     0.0976763  
C349     C      0.374050000000     0.551250000000     0.008710000000     0.411796   
C350     C      0.243930000000     0.544200000000     0.954460000000    -0.0376025  
C351     C      0.176380000000     0.514070000000     0.951010000000     0.0521854  
C352     C      0.309210000000     0.528520000000     0.006240000000     0.107412   
C353     C      0.803510000000     0.810010000000     0.524860000000    -0.217518   
C354     C      0.587050000000     0.641720000000     0.545270000000     0.0683532  
C355     C      0.631790000000     0.631410000000     0.530750000000     0.0724659  
C356     C      0.613040000000     0.675610000000     0.549080000000    -0.0899456  
C357     C      0.692540000000     0.741160000000     0.565360000000    -0.0391364  
C358     C      0.724370000000     0.772470000000     0.563570000000    -0.0242027  
C359     C      0.676220000000     0.723760000000     0.540730000000    -0.00264    
C360     C      0.658050000000     0.664520000000     0.534440000000    -0.0940555  
C361     C      0.740240000000     0.786500000000     0.537170000000    -0.0263107  
C362     C      0.787200000000     0.847540000000     0.542360000000    -0.121026   
C363     C      0.722380000000     0.770090000000     0.512430000000    -0.0246004  
C364     C      0.821980000000     0.874330000000     0.537300000000     0.0901265  
C365     C      0.837920000000     0.836900000000     0.520410000000     0.407789   
C366     C      0.690770000000     0.739180000000     0.514180000000    -0.0391175  
C367     C      0.648730000000     0.687460000000     0.542490000000     0.0481367  
C368     C      0.777490000000     0.815130000000     0.535340000000     0.105919   
C369     C      0.165960000000     0.169430000000     0.423270000000    -0.217273   
C370     C      0.383720000000     0.338490000000     0.410870000000     0.0696047  
C371     C      0.338940000000     0.351270000000     0.421000000000     0.0706733  
C372     C      0.357050000000     0.305620000000     0.404770000000    -0.0891744  
C373     C      0.259010000000     0.254960000000     0.388000000000    -0.0387592  
C374     C      0.228170000000     0.223370000000     0.390160000000    -0.0235987  
C375     C      0.291210000000     0.260410000000     0.403380000000    -0.00115695 
C376     C      0.311920000000     0.319330000000     0.414390000000    -0.089891   
C377     C      0.228640000000     0.196310000000     0.407740000000    -0.0253178  
C378     C      0.188760000000     0.132740000000     0.414980000000    -0.122521   
C379     C      0.261590000000     0.200820000000     0.421120000000    -0.0234358  
C380     C      0.155830000000     0.104790000000     0.422920000000     0.0938347  
C381     C      0.133890000000     0.141320000000     0.431590000000     0.411431   
C382     C      0.292640000000     0.232640000000     0.418960000000    -0.03847    
C383     C      0.320620000000     0.295630000000     0.406890000000     0.0475754  
C384     C      0.194060000000     0.165580000000     0.415080000000     0.107343   
C385     C      0.777610000000     0.957590000000     0.469400000000    -0.218429   
C386     C      0.586950000000     0.962790000000     0.391850000000     0.072831   
C387     C      0.555320000000     0.905850000000     0.410940000000     0.0656406  
C388     C      0.619300000000     0.962190000000     0.395660000000    -0.0908812  
C389     C      0.678890000000     0.961060000000     0.436250000000    -0.041302   
C390     C      0.713190000000     0.965510000000     0.444260000000    -0.0229368  
C391     C      0.655240000000     0.935650000000     0.418520000000    -0.00125858 
C392     C      0.587520000000     0.904290000000     0.415010000000    -0.0912243  
C393     C      0.724840000000     0.944870000000     0.434470000000    -0.0278852  
C394     C      0.783720000000     0.953650000000     0.420250000000    -0.127085   
C395     C      0.700950000000     0.918970000000     0.417110000000    -0.0235158  
C396     C      0.819640000000     0.962110000000     0.426900000000     0.0920199  
C397     C      0.813530000000     0.965580000000     0.475530000000     0.408992   
C398     C      0.666230000000     0.914170000000     0.409410000000    -0.0402018  
C399     C      0.620110000000     0.933380000000     0.408760000000     0.0455273  
C400     C      0.762320000000     0.951500000000     0.441560000000     0.107411   
C401     C      0.197770000000     0.026330000000     0.538850000000    -0.215112   
C402     C      0.421960000000     0.071880000000     0.523360000000     0.0711635  
C403     C      0.383180000000     0.017930000000     0.545500000000     0.0746851  
C404     C      0.396720000000     0.082530000000     0.525710000000    -0.0907007  
C405     C      0.315980000000     0.061300000000     0.504130000000    -0.0386628  
C406     C      0.280780000000     0.055680000000     0.499130000000    -0.0235847  
C407     C      0.332030000000     0.064730000000     0.531900000000    -0.00139689 
C408     C      0.358380000000     0.028160000000     0.549470000000    -0.0914494  
C409     C      0.260890000000     0.054130000000     0.521740000000    -0.0246201  
C410     C      0.207120000000     0.048880000000     0.489870000000    -0.123817   
C411     C      0.278340000000     0.060340000000     0.549240000000    -0.0225985  
C412     C      0.170100000000     0.036150000000     0.485080000000     0.0951887  
C413     C      0.160910000000     0.015010000000     0.533660000000     0.411598   
C414     C      0.313270000000     0.064900000000     0.554350000000    -0.0391604  
C415     C      0.363820000000     0.059810000000     0.537650000000     0.048946   
C416     C      0.221650000000     0.043620000000     0.516920000000     0.106478   
C417     C      0.014550000000     0.681800000000     0.421010000000    -0.213402   
C418     C      0.985180000000     0.859050000000     0.423900000000     0.0706357  
C419     C      0.048160000000     0.888650000000     0.433820000000     0.0735845  
C420     C      0.986120000000     0.829240000000     0.422430000000    -0.0961628  
C421     C      0.991340000000     0.768270000000     0.448160000000    -0.0430348  
C422     C      0.989690000000     0.736760000000     0.451850000000    -0.0291344  
C423     C      0.017930000000     0.795340000000     0.431970000000     0.00395933 
C424     C      0.050050000000     0.858920000000     0.432650000000    -0.0894695  
C425     C      0.014560000000     0.731310000000     0.439450000000    -0.0189452  
C426     C      0.005550000000     0.679560000000     0.470720000000    -0.124388   
C427     C      0.041310000000     0.758320000000     0.423240000000    -0.0244253  
C428     C      0.000660000000     0.646810000000     0.474380000000     0.108204   
C429     C      0.009340000000     0.648730000000     0.425290000000     0.410278   
C430     C      0.043170000000     0.790180000000     0.419730000000    -0.038006   
C431     C      0.018450000000     0.828450000000     0.428160000000     0.0547261  
C432     C      0.012150000000     0.697390000000     0.443770000000     0.107151   
C433     C      0.954370000000     0.289230000000     0.484240000000    -0.217909   
C434     C      0.920190000000     0.084100000000     0.528250000000     0.0706698  
C435     C      0.982910000000     0.117520000000     0.537770000000     0.0693885  
C436     C      0.915430000000     0.112270000000     0.529850000000    -0.0867911  
C437     C      0.917540000000     0.180600000000     0.539370000000    -0.0396223  
C438     C      0.917950000000     0.211830000000     0.534040000000    -0.0237905  
C439     C      0.944030000000     0.175980000000     0.528580000000    -0.00149916 
C440     C      0.979070000000     0.145520000000     0.540350000000    -0.0958278  
C441     C      0.944490000000     0.238620000000     0.517470000000    -0.0267529  
C442     C      0.941770000000     0.288290000000     0.532760000000    -0.125815   
C443     C      0.970530000000     0.233590000000     0.506540000000    -0.0229117  
C444     C      0.947460000000     0.321400000000     0.527010000000     0.0913913  
C445     C      0.960140000000     0.322240000000     0.479160000000     0.423856   
C446     C      0.970200000000     0.202780000000     0.511880000000    -0.0386913  
C447     C      0.945580000000     0.143890000000     0.534240000000     0.0494992  
C448     C      0.945900000000     0.272050000000     0.511360000000     0.108286   
C449     C      0.985510000000     0.977260000000     0.659100000000    -0.225705   
C450     C      0.960730000000     0.004660000000     0.832040000000     0.0715161  
C451     C      0.937720000000     0.945350000000     0.836890000000     0.0714228  
C452     C      0.957950000000     0.004770000000     0.802330000000    -0.0925201  
C453     C      0.917520000000     0.950630000000     0.742200000000    -0.037857   
C454     C      0.919420000000     0.950730000000     0.712730000000    -0.0248681  
C455     C      0.946250000000     0.975100000000     0.758090000000    -0.00343713 
C456     C      0.934440000000     0.944560000000     0.807140000000    -0.0901046  
C457     C      0.950300000000     0.974980000000     0.698780000000    -0.0246183  
C458     C      0.926560000000     0.970930000000     0.647430000000    -0.125583   
C459     C      0.978730000000     0.999650000000     0.714630000000    -0.0325669  
C460     C      0.931770000000     0.972040000000     0.618460000000     0.0924351  
C461     C      0.989840000000     0.977930000000     0.630150000000     0.407509   
C462     C      0.976700000000     0.999760000000     0.743890000000    -0.0352667  
C463     C      0.945440000000     0.974640000000     0.789510000000     0.0490162  
C464     C      0.953890000000     0.974110000000     0.668040000000     0.109093   
C465     C      0.046100000000     0.998420000000     0.313380000000    -0.2179     
C466     C      0.001720000000     0.959230000000     0.129670000000     0.0774638  
C467     C      0.026030000000     0.018690000000     0.124340000000     0.0721039  
C468     C      0.004970000000     0.959500000000     0.159370000000    -0.0852197  
C469     C      0.989830000000     0.965750000000     0.218710000000    -0.0459107  
C470     C      0.989510000000     0.966460000000     0.248120000000    -0.0281599  
C471     C      0.019380000000     0.990180000000     0.203440000000     0.00595007 
C472     C      0.029750000000     0.019870000000     0.154040000000    -0.0893914  
C473     C      0.018750000000     0.991570000000     0.263020000000    -0.0228467  
C474     C      0.985740000000     0.989280000000     0.304320000000    -0.134479   
C475     C      0.048710000000     0.015620000000     0.247950000000    -0.0225034  
C476     C      0.983730000000     0.990120000000     0.333400000000     0.0900753  
C477     C      0.043220000000     0.998880000000     0.342600000000     0.412247   
C478     C      0.048940000000     0.015040000000     0.218380000000    -0.0401975  
C479     C      0.018610000000     0.989960000000     0.171930000000     0.0457742  
C480     C      0.017020000000     0.993230000000     0.293970000000     0.11404    
C481     C      0.662960000000     0.662740000000     0.007640000000    -0.222675   
C482     C      0.802660000000     0.874960000000     0.951390000000     0.0695081  
C483     C      0.827220000000     0.843320000000     0.936380000000     0.065114   
C484     C      0.769920000000     0.845760000000     0.955870000000    -0.0892882  
C485     C      0.718370000000     0.781640000000     0.988100000000    -0.0395221  
C486     C      0.690970000000     0.751290000000     0.999940000000    -0.0237755  
C487     C      0.734630000000     0.782490000000     0.963310000000    -0.000169043
C488     C      0.795010000000     0.813380000000     0.941320000000    -0.0814215  
C489     C      0.679760000000     0.721100000000     0.987570000000    -0.0275305  
C490     C      0.618950000000     0.681210000000     0.006460000000    -0.120312   
C491     C      0.695000000000     0.721940000000     0.962400000000    -0.0236395  
C492     C      0.593130000000     0.647900000000     0.014350000000     0.0871635  
C493     C      0.636780000000     0.629990000000     0.015620000000     0.411784   
C494     C      0.721910000000     0.752290000000     0.950270000000    -0.0397997  
C495     C      0.766400000000     0.814180000000     0.952610000000     0.0447922  
C496     C      0.653680000000     0.688270000000     0.001360000000     0.106845   
C497     C      0.303360000000     0.303700000000     0.959610000000    -0.223508   
C498     C      0.164590000000     0.089340000000     0.008470000000     0.0697634  
C499     C      0.139680000000     0.120430000000     0.024010000000     0.0712775  
C500     C      0.197330000000     0.118740000000     0.004340000000    -0.0920025  
C501     C      0.249720000000     0.184590000000     0.973970000000    -0.038618   
C502     C      0.277210000000     0.215610000000     0.963160000000    -0.0237049  
C503     C      0.233030000000     0.182180000000     0.999010000000    -0.00157882 
C504     C      0.171940000000     0.150470000000     0.019660000000    -0.0905517  
C505     C      0.288190000000     0.244910000000     0.976920000000    -0.0277016  
C506     C      0.347930000000     0.286760000000     0.956760000000    -0.12604    
C507     C      0.272750000000     0.242370000000     0.002510000000    -0.0241018  
C508     C      0.372630000000     0.320450000000     0.948580000000     0.0965945  
C509     C      0.328390000000     0.336800000000     0.951340000000     0.413738   
C510     C      0.245690000000     0.211370000000     0.013530000000    -0.0393295  
C511     C      0.200840000000     0.150090000000     0.008490000000     0.0478416  
C512     C      0.313480000000     0.278640000000     0.963830000000     0.109796   
C513     C      0.685300000000     0.015010000000     0.025110000000    -0.216693   
C514     C      0.912020000000     0.057860000000     0.033790000000     0.0617281  
C515     C      0.876630000000     0.000390000000     0.050350000000     0.0712173  
C516     C      0.881170000000     0.061740000000     0.029660000000    -0.0949695  
C517     C      0.790930000000     0.011660000000     0.004070000000    -0.0421507  
C518     C      0.756870000000     0.008040000000     0.996460000000    -0.0233362  
C519     C      0.813570000000     0.033790000000     0.024550000000    -0.00241665 
C520     C      0.845620000000     0.003310000000     0.046550000000    -0.091822   
C521     C      0.744530000000     0.026250000000     0.009380000000    -0.027935   
C522     C      0.691830000000     0.016270000000     0.975030000000    -0.126891   
C523     C      0.767660000000     0.049220000000     0.029310000000    -0.023935   
C524     C      0.655890000000     0.008330000000     0.969620000000     0.0909323  
C525     C      0.649310000000     0.006820000000     0.019110000000     0.407155   
C526     C      0.802090000000     0.053130000000     0.036710000000    -0.0401681  
C527     C      0.847410000000     0.033630000000     0.034670000000     0.0453022  
C528     C      0.706970000000     0.019740000000     0.003020000000     0.106442   
C529     C      0.278050000000     0.955670000000     0.899260000000    -0.215084   
C530     C      0.067350000000     0.901050000000     0.954110000000     0.0733462  
C531     C      0.053630000000     0.912870000000     0.905450000000     0.0738047  
C532     C      0.095920000000     0.897740000000     0.946830000000    -0.0932357  
C533     C      0.165300000000     0.939030000000     0.896910000000    -0.0379581  
C534     C      0.201990000000     0.948820000000     0.898270000000    -0.0225768  
C535     C      0.141150000000     0.909340000000     0.912390000000    -0.00126722 
C536     C      0.083080000000     0.910750000000     0.897350000000    -0.0894703  
C537     C      0.215080000000     0.929180000000     0.915270000000    -0.0259468  
C538     C      0.268180000000     0.942020000000     0.949450000000    -0.125063   
C539     C      0.190500000000     0.898080000000     0.928640000000    -0.0238694  
C540     C      0.305010000000     0.954360000000     0.955140000000     0.0985354  
C541     C      0.314820000000     0.967320000000     0.905540000000     0.412476   
C542     C      0.153910000000     0.888150000000     0.927030000000    -0.0392407  
C543     C      0.105400000000     0.904370000000     0.918400000000     0.0491131  
C544     C      0.254250000000     0.942260000000     0.921260000000     0.108792   
C545     C      0.900670000000     0.777460000000     0.962500000000    -0.225061   
C546     C      0.944330000000     0.606550000000     0.002480000000     0.077333   
C547     C      0.926010000000     0.601910000000     0.953230000000     0.0832735  
C548     C      0.932840000000     0.630000000000     0.003750000000    -0.0921933  
C549     C      0.896430000000     0.672210000000     0.003410000000    -0.0393087  
C550     C      0.894750000000     0.701700000000     0.005380000000    -0.0237102  
C551     C      0.910640000000     0.668470000000     0.979450000000    -0.00177935 
C552     C      0.914060000000     0.625290000000     0.953780000000    -0.0914511  
C553     C      0.906960000000     0.727730000000     0.983300000000    -0.0282939  
C554     C      0.923470000000     0.776960000000     0.011340000000    -0.128748   
C555     C      0.919590000000     0.723260000000     0.958820000000    -0.0229716  
C556     C      0.931420000000     0.810520000000     0.011650000000     0.0929056  
C557     C      0.909270000000     0.810930000000     0.963310000000     0.413169   
C558     C      0.921410000000     0.693980000000     0.956910000000    -0.0386318  
C559     C      0.918100000000     0.640110000000     0.979140000000     0.0518135  
C560     C      0.909190000000     0.760590000000     0.986160000000     0.110812   
C561     C      0.050750000000     0.335810000000     0.003370000000    -0.221377   
C562     C      0.042710000000     0.154210000000     0.947800000000     0.0706509  
C563     C      0.062270000000     0.153420000000     0.996740000000     0.0736372  
C564     C      0.050480000000     0.187710000000     0.947850000000    -0.092214   
C565     C      0.075220000000     0.261990000000     0.953520000000    -0.0394492  
C566     C      0.071220000000     0.290400000000     0.954720000000    -0.02371    
C567     C      0.063530000000     0.236020000000     0.975710000000    -0.0021729  
C568     C      0.070720000000     0.186890000000     0.997450000000    -0.0938084  
C569     C      0.055300000000     0.293180000000     0.978050000000    -0.0277304  
C570     C      0.033060000000     0.331600000000     0.953280000000    -0.128799   
C571     C      0.044840000000     0.267740000000     0.000650000000    -0.0233728  
C572     C      0.022550000000     0.355880000000     0.954170000000     0.0943165  
C573     C      0.039810000000     0.359940000000     0.003680000000     0.410414   
C574     C      0.048920000000     0.239510000000     0.999500000000    -0.0386361  
C575     C      0.063080000000     0.203830000000     0.973270000000     0.0497133  
C576     C      0.047070000000     0.321100000000     0.978100000000     0.109607   
F1       F      0.487580000000     0.415080000000     0.860590000000    -0.452371   
F2       F      0.474140000000     0.552120000000     0.343210000000    -0.459519   
F3       F      0.417740000000     0.818590000000     0.431440000000    -0.418008   
F4       F      0.474240000000     0.118980000000     0.410380000000    -0.461642   
F5       F      0.455740000000     0.002890000000     0.819790000000    -0.448485   
F6       F      0.425070000000     0.902060000000     0.338370000000    -0.437018   
F7       F      0.498440000000     0.635580000000     0.998990000000    -0.436995   
F8       F      0.391020000000     0.058590000000     0.010990000000    -0.455358   
F9       F      0.904610000000     0.330880000000     0.427420000000    -0.425986   
F10      F      0.354140000000     0.825080000000     0.427230000000    -0.422086   
F11      F      0.904110000000     0.576270000000     0.504820000000    -0.456095   
F12      F      0.374940000000     0.496940000000     0.572280000000    -0.460829   
F13      F      0.966700000000     0.536480000000     0.841230000000    -0.460417   
F14      F      0.000790000000     0.536200000000     0.108380000000    -0.45143    
F15      F      0.603350000000     0.144700000000     0.918310000000    -0.461522   
F16      F      0.143650000000     0.607470000000     0.023130000000    -0.469607   
F17      F      0.860590000000     0.502840000000     0.964900000000    -0.469375   
F18      F      0.407010000000     0.578310000000     0.004230000000    -0.434847   
F19      F      0.861710000000     0.829580000000     0.510480000000    -0.453768   
F20      F      0.107790000000     0.147350000000     0.438810000000    -0.458383   
F21      F      0.826700000000     0.971360000000     0.503000000000    -0.45683    
F22      F      0.139260000000     0.997860000000     0.555700000000    -0.454123   
F23      F      0.011470000000     0.634830000000     0.402230000000    -0.450362   
F24      F      0.969940000000     0.337650000000     0.452600000000    -0.424466   
F25      F      0.021470000000     0.981230000000     0.623190000000    -0.454105   
F26      F      0.072240000000     0.003760000000     0.360430000000    -0.453712   
F27      F      0.647060000000     0.605880000000     0.021130000000    -0.466868   
F28      F      0.317010000000     0.360170000000     0.947590000000    -0.468919   
F29      F      0.629770000000     0.002280000000     0.041680000000    -0.453392   
F30      F      0.336600000000     0.980050000000     0.883220000000    -0.447449   
F31      F      0.900880000000     0.826000000000     0.939270000000    -0.462784   
F32      F      0.044130000000     0.373230000000     0.028950000000    -0.460932   
H1       H      0.020220000000     0.989160000000     0.918240000000     0.206322   
H2       H      0.960710000000     0.043310000000     0.977900000000     0.194032   
H3       H      0.910490000000     0.906940000000     0.992360000000     0.198613   
H4       H      0.045620000000     0.989260000000     0.035100000000     0.191232   
H5       H      0.950610000000     0.063680000000     0.926360000000     0.132449   
H6       H      0.887650000000     0.011560000000     0.945430000000     0.197652   
H7       H      0.855180000000     0.929370000000     0.020060000000     0.132878   
H8       H      0.903300000000     0.898310000000     0.054310000000     0.188442   
H9       H      0.032580000000     0.918970000000     0.036880000000     0.136761   
H10      H      0.105650000000     0.978130000000     0.013480000000     0.192865   
H11      H      0.103760000000     0.036840000000     0.936020000000     0.13836    
H12      H      0.036760000000     0.074440000000     0.885330000000     0.205503   
H13      H      0.927830000000     0.881510000000     0.071670000000     0.203161   
H14      H      0.118120000000     0.983240000000     0.980030000000     0.202894   
H15      H      0.065420000000     0.068620000000     0.909390000000     0.195483   
H16      H      0.885660000000     0.020630000000     0.978230000000     0.198236   
H17      H      0.902460000000     0.934950000000     0.466970000000     0.199912   
H18      H      0.020570000000     0.043590000000     0.422810000000     0.197767   
H19      H      0.003480000000     0.032170000000     0.537190000000     0.199074   
H20      H      0.034000000000     0.943320000000     0.496160000000     0.206981   
H21      H      0.969350000000     0.048310000000     0.391090000000     0.136027   
H22      H      0.992150000000     0.103050000000     0.449270000000     0.210962   
H23      H      0.075850000000     0.093080000000     0.521750000000     0.131644   
H24      H      0.073250000000     0.047620000000     0.565620000000     0.201831   
H25      H      0.011330000000     0.926880000000     0.568050000000     0.157669   
H26      H      0.970290000000     0.877610000000     0.533150000000     0.213104   
H27      H      0.903030000000     0.868800000000     0.449190000000     0.138674   
H28      H      0.897220000000     0.927570000000     0.401270000000     0.191772   
H29      H      0.083480000000     0.017880000000     0.580490000000     0.252028   
H30      H      0.993880000000     0.877610000000     0.507110000000     0.201546   
H31      H      0.897000000000     0.960100000000     0.380590000000     0.203321   
H32      H      0.023220000000     0.106110000000     0.428660000000     0.221334   
H33      H      0.945960000000     0.452240000000     0.039760000000     0.200943   
H34      H      0.924920000000     0.452850000000     0.922670000000     0.195851   
H35      H      0.024690000000     0.569640000000     0.969030000000     0.198519   
H36      H      0.052710000000     0.464430000000     0.977630000000     0.207206   
H37      H      0.848560000000     0.425950000000     0.953620000000     0.151931   
H38      H      0.892550000000     0.496210000000     0.912730000000     0.218292   
H39      H      0.030190000000     0.577990000000     0.907510000000     0.138386   
H40      H      0.100530000000     0.593420000000     0.933440000000     0.198783   
H41      H      0.128990000000     0.544110000000     0.997590000000     0.171498   
H42      H      0.082320000000     0.467630000000     0.037550000000     0.214232   
H43      H      0.955090000000     0.377590000000     0.035500000000     0.147732   
H44      H      0.892370000000     0.375960000000     0.023600000000     0.201037   
H45      H      0.131090000000     0.591110000000     0.957610000000     0.217542   
H46      H      0.058540000000     0.438290000000     0.063060000000     0.229032   
H47      H      0.881420000000     0.401060000000     0.038180000000     0.197938   
H48      H      0.916540000000     0.530350000000     0.890850000000     0.234049   
H49      H      0.923420000000     0.467290000000     0.526330000000     0.19573    
H50      H      0.935270000000     0.462580000000     0.412950000000     0.197137   
H51      H      0.041110000000     0.567910000000     0.467990000000     0.201845   
H52      H      0.027180000000     0.442210000000     0.497650000000     0.20336    
H53      H      0.862080000000     0.450300000000     0.416490000000     0.137706   
H54      H      0.934620000000     0.545190000000     0.397040000000     0.224876   
H55      H      0.062660000000     0.573330000000     0.411380000000     0.13133    
H56      H      0.123240000000     0.568610000000     0.459790000000     0.195123   
H57      H      0.087250000000     0.498760000000     0.538340000000     0.139257   
H58      H      0.032480000000     0.430330000000     0.553490000000     0.197188   
H59      H      0.899400000000     0.395000000000     0.536940000000     0.131285   
H60      H      0.828230000000     0.415800000000     0.472060000000     0.199458   
H61      H      0.136640000000     0.553500000000     0.490010000000     0.201919   
H62      H      0.007200000000     0.425860000000     0.580040000000     0.206694   
H63      H      0.847310000000     0.405160000000     0.501470000000     0.190494   
H64      H      0.941730000000     0.523900000000     0.374400000000     0.20711    
H65      H      0.467510000000     0.945190000000     0.905540000000     0.196713   
H66      H      0.447400000000     0.932290000000     0.019450000000     0.192821   
H67      H      0.569370000000     0.038530000000     0.977830000000     0.199204   
H68      H      0.442250000000     0.037200000000     0.947660000000     0.208587   
H69      H      0.447800000000     0.878090000000     0.013640000000     0.134097   
H70      H      0.531210000000     0.923750000000     0.032670000000     0.216848   
H71      H      0.569400000000     0.044260000000     0.038950000000     0.129759   
H72      H      0.578250000000     0.098220000000     0.002900000000     0.194219   
H73      H      0.514890000000     0.098230000000     0.911650000000     0.16393    
H74      H      0.427610000000     0.048780000000     0.890290000000     0.224379   
H75      H      0.403320000000     0.935310000000     0.879640000000     0.127306   
H76      H      0.386320000000     0.883670000000     0.919230000000     0.197704   
H77      H      0.566900000000     0.125600000000     0.984170000000     0.223713   
H78      H      0.462760000000     0.056030000000     0.872440000000     0.225892   
H79      H      0.398820000000     0.855120000000     0.933000000000     0.206479   
H80      H      0.505480000000     0.924420000000     0.056580000000     0.20274    
H81      H      0.410260000000     0.960190000000     0.414100000000     0.199901   
H82      H      0.449790000000     0.971710000000     0.528050000000     0.197754   
H83      H      0.510890000000     0.922180000000     0.466170000000     0.204737   
H84      H      0.545780000000     0.055470000000     0.444990000000     0.196467   
H85      H      0.373990000000     0.914460000000     0.520340000000     0.12946    
H86      H      0.423450000000     0.897350000000     0.553040000000     0.189142   
H87      H      0.548070000000     0.941250000000     0.535650000000     0.140913   
H88      H      0.593010000000     0.968310000000     0.490980000000     0.199894   
H89      H      0.600320000000     0.039240000000     0.412900000000     0.132953   
H90      H      0.545070000000     0.061630000000     0.383840000000     0.189765   
H91      H      0.421200000000     0.037590000000     0.408660000000     0.15984    
H92      H      0.357170000000     0.971780000000     0.432490000000     0.201147   
H93      H      0.581980000000     0.948040000000     0.461280000000     0.199734   
H94      H      0.515660000000     0.073930000000     0.368730000000     0.215697   
H95      H      0.373670000000     0.003330000000     0.453900000000     0.207367   
H96      H      0.455260000000     0.886390000000     0.563390000000     0.202791   
H97      H      0.428130000000     0.469640000000     0.031180000000     0.195006   
H98      H      0.430090000000     0.457340000000     0.917680000000     0.20021    
H99      H      0.539330000000     0.567270000000     0.965260000000     0.199552   
H100     H      0.529850000000     0.444170000000     0.998850000000     0.204357   
H101     H      0.357000000000     0.442530000000     0.925270000000     0.159442   
H102     H      0.426590000000     0.538540000000     0.900620000000     0.215201   
H103     H      0.554630000000     0.570790000000     0.906400000000     0.131478   
H104     H      0.621770000000     0.568390000000     0.954380000000     0.201541   
H105     H      0.594940000000     0.507280000000     0.035480000000     0.152003   
H106     H      0.531260000000     0.424420000000     0.057830000000     0.201368   
H107     H      0.407920000000     0.399520000000     0.048790000000     0.130053   
H108     H      0.350650000000     0.405300000000     0.011740000000     0.198477   
H109     H      0.637330000000     0.554560000000     0.984140000000     0.227016   
H110     H      0.536570000000     0.456240000000     0.075570000000     0.20525    
H111     H      0.329070000000     0.415320000000     0.983750000000     0.225029   
H112     H      0.429890000000     0.513730000000     0.879180000000     0.204873   
H113     H      0.441110000000     0.453510000000     0.539640000000     0.199511   
H114     H      0.425430000000     0.464330000000     0.422140000000     0.192013   
H115     H      0.527090000000     0.574630000000     0.475670000000     0.199097   
H116     H      0.548240000000     0.465400000000     0.478220000000     0.200685   
H117     H      0.350120000000     0.440360000000     0.449310000000     0.134575   
H118     H      0.399270000000     0.514620000000     0.410800000000     0.193184   
H119     H      0.537380000000     0.587160000000     0.415120000000     0.140176   
H120     H      0.607810000000     0.598360000000     0.444190000000     0.195742   
H121     H      0.616030000000     0.531180000000     0.513420000000     0.140425   
H122     H      0.573390000000     0.455600000000     0.532100000000     0.197546   
H123     H      0.443470000000     0.397850000000     0.556920000000     0.137085   
H124     H      0.385030000000     0.381480000000     0.520140000000     0.203114   
H125     H      0.634620000000     0.589620000000     0.468100000000     0.200529   
H126     H      0.553790000000     0.440970000000     0.563360000000     0.205172   
H127     H      0.372870000000     0.406140000000     0.534040000000     0.203398   
H128     H      0.427690000000     0.551130000000     0.393530000000     0.228603   
H129     H      0.504560000000     0.435120000000     0.615980000000     0.0227129  
H130     H      0.494700000000     0.517890000000     0.838740000000     0.0230607  
H131     H      0.466170000000     0.419570000000     0.707170000000     0.0436681  
H132     H      0.545100000000     0.521530000000     0.758850000000     0.0375498  
H133     H      0.501250000000     0.517090000000     0.789290000000     0.0637923  
H134     H      0.546740000000     0.524710000000     0.707110000000     0.041387   
H135     H      0.495620000000     0.419650000000     0.806640000000     0.116874   
H136     H      0.507680000000     0.430070000000     0.667810000000     0.0549526  
H137     H      0.501760000000     0.521820000000     0.666740000000     0.0576003  
H138     H      0.463900000000     0.416450000000     0.759090000000     0.0421897  
H139     H      0.498560000000     0.526290000000     0.614990000000     0.0335892  
H140     H      0.481370000000     0.552250000000     0.099440000000     0.038724   
H141     H      0.476850000000     0.453870000000     0.343220000000     0.0225198  
H142     H      0.511610000000     0.561070000000     0.197230000000     0.0441876  
H143     H      0.429710000000     0.454390000000     0.251650000000     0.0368619  
H144     H      0.474250000000     0.457680000000     0.291700000000     0.0634003  
H145     H      0.430300000000     0.455940000000     0.199980000000     0.0415148  
H146     H      0.471210000000     0.550950000000     0.288850000000     0.117376   
H147     H      0.476870000000     0.555700000000     0.149850000000     0.0592648  
H148     H      0.474940000000     0.459960000000     0.169650000000     0.054352   
H149     H      0.510690000000     0.559570000000     0.249190000000     0.0422168  
H150     H      0.478920000000     0.456940000000     0.119950000000     0.0268668  
H151     H      0.429150000000     0.603430000000     0.441170000000     0.0276403  
H152     H      0.423040000000     0.823130000000     0.527500000000     0.0179849  
H153     H      0.356950000000     0.648240000000     0.462010000000     0.0415201  
H154     H      0.434030000000     0.732740000000     0.530880000000     0.0362076  
H155     H      0.402250000000     0.763190000000     0.536010000000     0.0619726  
H156     H      0.438650000000     0.682090000000     0.531070000000     0.041377   
H157     H      0.396310000000     0.756310000000     0.445160000000     0.125855   
H158     H      0.404670000000     0.640300000000     0.446310000000     0.0573108  
H159     H      0.413230000000     0.622190000000     0.538060000000     0.0574267  
H160     H      0.352290000000     0.699580000000     0.461830000000     0.0421288  
H161     H      0.438820000000     0.586840000000     0.532330000000     0.038382   
H162     H      0.498010000000     0.346420000000     0.515500000000     0.0283076  
H163     H      0.559510000000     0.141630000000     0.482810000000     0.0186669  
H164     H      0.511870000000     0.284780000000     0.416830000000     0.040377   
H165     H      0.541980000000     0.224090000000     0.500280000000     0.0346697  
H166     H      0.569130000000     0.198040000000     0.483760000000     0.0609767  
H167     H      0.542220000000     0.275810000000     0.506740000000     0.038721   
H168     H      0.486200000000     0.178530000000     0.416200000000     0.11514    
H169     H      0.505780000000     0.298370000000     0.510210000000     0.0534771  
H170     H      0.540840000000     0.340000000000     0.424820000000     0.0530712  
H171     H      0.516500000000     0.235720000000     0.409660000000     0.0383923  
H172     H      0.529700000000     0.385600000000     0.430020000000     0.0276586  
H173     H      0.536370000000     0.050200000000     0.589270000000     0.0276078  
H174     H      0.560580000000     0.000450000000     0.840520000000     0.0230026  
H175     H      0.507830000000     0.040970000000     0.679850000000     0.0420184  
H176     H      0.546380000000     0.971480000000     0.748260000000     0.0360096  
H177     H      0.570060000000     0.004040000000     0.790160000000     0.0617927  
H178     H      0.549590000000     0.971030000000     0.697030000000     0.0394429  
H179     H      0.470490000000     0.005680000000     0.768540000000     0.119027   
H180     H      0.543940000000     0.055970000000     0.640210000000     0.05362    
H181     H      0.510190000000     0.949660000000     0.656050000000     0.0523787  
H182     H      0.506360000000     0.042700000000     0.730870000000     0.0423749  
H183     H      0.503910000000     0.944900000000     0.605130000000     0.0221101  
H184     H      0.504830000000     0.975570000000     0.105190000000     0.0325135  
H185     H      0.457440000000     0.013290000000     0.323320000000     0.0250541  
H186     H      0.460300000000     0.927190000000     0.191850000000     0.0433733  
H187     H      0.411030000000     0.990710000000     0.231460000000     0.0385341  
H188     H      0.451850000000     0.011310000000     0.272300000000     0.0639828  
H189     H      0.414950000000     0.994370000000     0.179820000000     0.042621   
H190     H      0.420110000000     0.905350000000     0.283520000000     0.120294   
H191     H      0.495890000000     0.968790000000     0.155510000000     0.0567254  
H192     H      0.392920000000     0.964440000000     0.136220000000     0.056314   
H193     H      0.457770000000     0.924630000000     0.243400000000     0.0439825  
H194     H      0.402910000000     0.971850000000     0.085430000000     0.0338195  
H195     H      0.457290000000     0.852360000000     0.905960000000     0.0195779  
H196     H      0.507100000000     0.632070000000     0.904620000000     0.0242561  
H197     H      0.478400000000     0.774890000000     0.949300000000     0.0447514  
H198     H      0.561040000000     0.751390000000     0.902460000000     0.035913   
H199     H      0.517660000000     0.689590000000     0.893990000000     0.0628378  
H200     H      0.563830000000     0.807000000000     0.892410000000     0.0401397  
H201     H      0.510900000000     0.695560000000     0.983210000000     0.119799   
H202     H      0.462840000000     0.802640000000     0.903850000000     0.0551671  
H203     H      0.577290000000     0.861010000000     0.920830000000     0.0541004  
H204     H      0.475150000000     0.720070000000     0.958810000000     0.0462973  
H205     H      0.570770000000     0.911420000000     0.922130000000     0.0261103  
H206     H      0.455060000000     0.336340000000     0.051660000000     0.0268677  
H207     H      0.511590000000     0.119740000000     0.026300000000     0.0200154  
H208     H      0.405070000000     0.215760000000     0.047510000000     0.0413567  
H209     H      0.495780000000     0.204620000000     0.999600000000     0.0405356  
H210     H      0.508160000000     0.168550000000     0.036040000000     0.0639462  
H211     H      0.496780000000     0.258450000000     0.995480000000     0.043361   
H212     H      0.393100000000     0.114060000000     0.021140000000     0.114354   
H213     H      0.447510000000     0.279320000000     0.060530000000     0.0538706  
H214     H      0.454810000000     0.277890000000     0.970470000000     0.0578535  
H215     H      0.404440000000     0.161000000000     0.052270000000     0.039438   
H216     H      0.462740000000     0.334090000000     0.962310000000     0.0353733  
H217     H      0.658030000000     0.072030000000     0.478450000000     0.0276984  
H218     H      0.822260000000     0.363750000000     0.436060000000     0.0129434  
H219     H      0.734460000000     0.170040000000     0.438030000000     0.0409845  
H220     H      0.776420000000     0.269100000000     0.493760000000     0.0356008  
H221     H      0.775860000000     0.306480000000     0.446050000000     0.0614472  
H222     H      0.728050000000     0.214710000000     0.511300000000     0.0387608  
H223     H      0.851090000000     0.271290000000     0.438640000000     0.117818   
H224     H      0.714260000000     0.123510000000     0.472560000000     0.0542356  
H225     H      0.666590000000     0.178660000000     0.500170000000     0.0513415  
H226     H      0.783860000000     0.224380000000     0.421290000000     0.0407635  
H227     H      0.610970000000     0.126210000000     0.507010000000     0.0255074  
H228     H      0.140110000000     0.602250000000     0.529730000000     0.0197981  
H229     H      0.300730000000     0.884270000000     0.446510000000     0.0204738  
H230     H      0.228360000000     0.713620000000     0.526570000000     0.0399151  
H231     H      0.194480000000     0.773130000000     0.444060000000     0.0400045  
H232     H      0.246700000000     0.833340000000     0.460510000000     0.0659849  
H233     H      0.147240000000     0.724200000000     0.469880000000     0.0434101  
H234     H      0.294810000000     0.774020000000     0.443960000000     0.119209   
H235     H      0.188710000000     0.657950000000     0.519370000000     0.0523872  
H236     H      0.114340000000     0.697260000000     0.511870000000     0.055234   
H237     H      0.275130000000     0.761140000000     0.499600000000     0.0410221  
H238     H      0.065520000000     0.640060000000     0.521370000000     0.0306775  
H239     H      0.630450000000     0.558680000000     0.421450000000     0.0199278  
H240     H      0.828300000000     0.463940000000     0.516720000000     0.0137361  
H241     H      0.742740000000     0.560260000000     0.434240000000     0.041907   
H242     H      0.739540000000     0.492500000000     0.525800000000     0.0351143  
H243     H      0.776240000000     0.471460000000     0.510990000000     0.0607502  
H244     H      0.683530000000     0.486820000000     0.502000000000     0.0397317  
H245     H      0.844770000000     0.579360000000     0.499290000000     0.114163   
H246     H      0.689670000000     0.569320000000     0.441230000000     0.0516789  
H247     H      0.650120000000     0.461910000000     0.454830000000     0.0525508  
H248     H      0.798940000000     0.565400000000     0.457660000000     0.0425645  
H249     H      0.591170000000     0.452170000000     0.435250000000     0.0227935  
H250     H      0.131360000000     0.519290000000     0.440950000000     0.0208082  
H251     H      0.362350000000     0.516230000000     0.476660000000     0.0164913  
H252     H      0.213280000000     0.530430000000     0.512820000000     0.0377526  
H253     H      0.248130000000     0.441290000000     0.516090000000     0.0426     
H254     H      0.305000000000     0.513600000000     0.479550000000     0.0656464  
H255     H      0.187980000000     0.429400000000     0.497460000000     0.0430464  
H256     H      0.312070000000     0.493840000000     0.571020000000     0.115004   
H257     H      0.186220000000     0.525500000000     0.466070000000     0.0514645  
H258     H      0.129270000000     0.421510000000     0.500440000000     0.0557088  
H259     H      0.274100000000     0.542490000000     0.530110000000     0.0378688  
H260     H      0.074620000000     0.416150000000     0.474200000000     0.033772   
H261     H      0.978870000000     0.546920000000     0.599660000000     0.0310992  
H262     H      0.984820000000     0.446120000000     0.843180000000     0.0213928  
H263     H      0.940030000000     0.516790000000     0.693170000000     0.0425139  
H264     H      0.025840000000     0.489820000000     0.754770000000     0.0372133  
H265     H      0.986650000000     0.451690000000     0.791720000000     0.0618207  
H266     H      0.027620000000     0.494140000000     0.702940000000     0.041152   
H267     H      0.970730000000     0.538370000000     0.787630000000     0.117669   
H268     H      0.981560000000     0.551200000000     0.651000000000     0.0569239  
H269     H      0.981790000000     0.456180000000     0.666970000000     0.052803   
H270     H      0.937690000000     0.511890000000     0.745130000000     0.0403869  
H271     H      0.979010000000     0.452390000000     0.616470000000     0.0201487  
H272     H      0.003600000000     0.525590000000     0.337510000000     0.0311656  
H273     H      0.012730000000     0.442000000000     0.115450000000     0.025578   
H274     H      0.958320000000     0.486460000000     0.250470000000     0.038632   
H275     H      0.044280000000     0.461500000000     0.210370000000     0.0417566  
H276     H      0.011870000000     0.436600000000     0.166830000000     0.0659131  
H277     H      0.041190000000     0.457470000000     0.262330000000     0.0416416  
H278     H      0.001050000000     0.526120000000     0.162830000000     0.119052   
H279     H      0.005860000000     0.523410000000     0.287240000000     0.0630461  
H280     H      0.995550000000     0.424050000000     0.303540000000     0.0619417  
H281     H      0.960620000000     0.489710000000     0.198870000000     0.0428634  
H282     H      0.993090000000     0.426670000000     0.354510000000     0.0377985  
H283     H      0.832760000000     0.358560000000     0.931760000000     0.0303334  
H284     H      0.649320000000     0.075440000000     0.910640000000     0.0214478  
H285     H      0.814310000000     0.226750000000     0.928110000000     0.0408288  
H286     H      0.707780000000     0.219310000000     0.869040000000     0.04134    
H287     H      0.708180000000     0.123490000000     0.899970000000     0.0610044  
H288     H      0.763020000000     0.273320000000     0.870320000000     0.0425615  
H289     H      0.666670000000     0.190900000000     0.907690000000     0.116384   
H290     H      0.786270000000     0.304390000000     0.917940000000     0.0569051  
H291     H      0.866580000000     0.281770000000     0.895600000000     0.0527255  
H292     H      0.758510000000     0.172390000000     0.927290000000     0.0362506  
H293     H      0.913580000000     0.337620000000     0.909240000000     0.025538   
H294     H      0.352420000000     0.833320000000     0.001080000000     0.0252869  
H295     H      0.058220000000     0.634560000000     0.036870000000     0.0280151  
H296     H      0.205030000000     0.799470000000     0.007340000000     0.0409745  
H297     H      0.212480000000     0.707950000000     0.071390000000     0.0432959  
H298     H      0.103790000000     0.692630000000     0.046000000000     0.0655943  
H299     H      0.265870000000     0.763150000000     0.065530000000     0.0435658  
H300     H      0.186470000000     0.668760000000     0.032610000000     0.116096   
H301     H      0.296870000000     0.785750000000     0.016290000000     0.0558532  
H302     H      0.260140000000     0.853390000000     0.035100000000     0.0544824  
H303     H      0.151290000000     0.743690000000     0.012880000000     0.0374259  
H304     H      0.317260000000     0.901490000000     0.020070000000     0.0294112  
H305     H      0.629350000000     0.517000000000     0.939010000000     0.0213029  
H306     H      0.875070000000     0.503510000000     0.061040000000     0.0213677  
H307     H      0.714650000000     0.528640000000     0.009000000000     0.0442933  
H308     H      0.746110000000     0.437510000000     0.010000000000     0.0418545  
H309     H      0.816170000000     0.500320000000     0.064060000000     0.0654096  
H310     H      0.685770000000     0.426710000000     0.993420000000     0.0425675  
H311     H      0.800330000000     0.499110000000     0.972440000000     0.119052   
H312     H      0.684930000000     0.523220000000     0.962820000000     0.0546737  
H313     H      0.628290000000     0.420070000000     0.999200000000     0.0539759  
H314     H      0.775700000000     0.539570000000     0.024450000000     0.0392479  
H315     H      0.572970000000     0.414720000000     0.974480000000     0.0249551  
H316     H      0.130420000000     0.552910000000     0.918530000000     0.0197476  
H317     H      0.331660000000     0.466990000000     0.024020000000     0.0162569  
H318     H      0.244360000000     0.556940000000     0.933420000000     0.0426094  
H319     H      0.243090000000     0.497020000000     0.028930000000     0.03958    
H320     H      0.279590000000     0.474490000000     0.017280000000     0.0641525  
H321     H      0.186600000000     0.489160000000     0.004440000000     0.0469206  
H322     H      0.347740000000     0.581440000000     0.998010000000     0.117354   
H323     H      0.190200000000     0.566180000000     0.938960000000     0.0550377  
H324     H      0.153740000000     0.459770000000     0.958060000000     0.0573756  
H325     H      0.301020000000     0.564120000000     0.957490000000     0.0431111  
H326     H      0.094330000000     0.447370000000     0.937610000000     0.0266638  
H327     H      0.640540000000     0.615040000000     0.523640000000     0.0185967  
H328     H      0.828000000000     0.899250000000     0.542120000000     0.0404345  
H329     H      0.678780000000     0.726230000000     0.494910000000     0.0421414  
H330     H      0.737810000000     0.784540000000     0.582980000000     0.0389634  
H331     H      0.767740000000     0.852400000000     0.550680000000     0.0671062  
H332     H      0.682090000000     0.729570000000     0.586110000000     0.0420336  
H333     H      0.797110000000     0.785070000000     0.519770000000     0.116931   
H334     H      0.685490000000     0.672560000000     0.529770000000     0.0553296  
H335     H      0.604970000000     0.692720000000     0.555590000000     0.0547786  
H336     H      0.733980000000     0.780390000000     0.491840000000     0.040995   
H337     H      0.559330000000     0.633710000000     0.548960000000     0.0274152  
H338     H      0.330540000000     0.368230000000     0.427400000000     0.0297758  
H339     H      0.152920000000     0.079840000000     0.422670000000     0.030408   
H340     H      0.316990000000     0.236070000000     0.431180000000     0.042187   
H341     H      0.203360000000     0.220560000000     0.379190000000     0.0421892  
H342     H      0.209840000000     0.128650000000     0.408720000000     0.0647963  
H343     H      0.257160000000     0.275700000000     0.375490000000     0.0425173  
H344     H      0.168960000000     0.194360000000     0.423810000000     0.118161   
H345     H      0.284210000000     0.312790000000     0.416420000000     0.0568321  
H346     H      0.364890000000     0.288050000000     0.398870000000     0.0541986  
H347     H      0.262790000000     0.180480000000     0.434870000000     0.0379742  
H348     H      0.411620000000     0.345070000000     0.409820000000     0.0280084  
H349     H      0.530860000000     0.883790000000     0.417960000000     0.0385081  
H350     H      0.835040000000     0.963550000000     0.409510000000     0.0194663  
H351     H      0.648420000000     0.894440000000     0.395710000000     0.0440034  
H352     H      0.731030000000     0.985820000000     0.457450000000     0.040095   
H353     H      0.773030000000     0.949570000000     0.398350000000     0.0628401  
H354     H      0.670900000000     0.977820000000     0.443670000000     0.0427824  
H355     H      0.761810000000     0.956120000000     0.486480000000     0.114329   
H356     H      0.587210000000     0.881380000000     0.424820000000     0.0568887  
H357     H      0.643880000000     0.984810000000     0.389740000000     0.0585134  
H358     H      0.709190000000     0.902550000000     0.409420000000     0.0368437  
H359     H      0.587710000000     0.986120000000     0.382600000000     0.0255542  
H360     H      0.376550000000     0.992020000000     0.552470000000     0.0240717  
H361     H      0.160440000000     0.040920000000     0.463740000000     0.0271027  
H362     H      0.325040000000     0.067080000000     0.576030000000     0.0443898  
H363     H      0.268710000000     0.050480000000     0.477730000000     0.0373314  
H364     H      0.224050000000     0.062870000000     0.472240000000     0.0626015  
H365     H      0.329640000000     0.060200000000     0.486600000000     0.043715   
H366     H      0.207080000000     0.020540000000     0.559940000000     0.117435   
H367     H      0.333270000000     0.010020000000     0.558880000000     0.0589099  
H368     H      0.401630000000     0.107240000000     0.516310000000     0.0567102  
H369     H      0.264720000000     0.060510000000     0.567160000000     0.0415928  
H370     H      0.445880000000     0.088940000000     0.511940000000     0.0288749  
H371     H      0.072790000000     0.911340000000     0.438940000000     0.0321107  
H372     H      0.995440000000     0.634290000000     0.495770000000     0.034982   
H373     H      0.063930000000     0.810570000000     0.407130000000     0.0439559  
H374     H      0.968540000000     0.716460000000     0.464210000000     0.0433644  
H375     H      0.004010000000     0.690830000000     0.489040000000     0.0710342  
H376     H      0.971790000000     0.771500000000     0.458230000000     0.0456623  
H377     H      0.019450000000     0.694750000000     0.399780000000     0.117509   
H378     H      0.075690000000     0.859430000000     0.436910000000     0.0571995  
H379     H      0.961250000000     0.806520000000     0.417900000000     0.0590219  
H380     H      0.061000000000     0.754910000000     0.413580000000     0.0411976  
H381     H      0.959150000000     0.857910000000     0.420320000000     0.0313317  
H382     H      0.009820000000     0.120570000000     0.540830000000     0.0343639  
H383     H      0.944460000000     0.333070000000     0.544400000000     0.0215911  
H384     H      0.990610000000     0.199930000000     0.502750000000     0.0447199  
H385     H      0.897390000000     0.214920000000     0.542630000000     0.0364674  
H386     H      0.935420000000     0.275980000000     0.554110000000     0.0615886  
H387     H      0.897010000000     0.160370000000     0.552250000000     0.0411361  
H388     H      0.957270000000     0.277390000000     0.466930000000     0.123028   
H389     H      0.002810000000     0.169070000000     0.545110000000     0.063211   
H390     H      0.888940000000     0.109870000000     0.525470000000     0.0573239  
H391     H      0.991670000000     0.253720000000     0.494050000000     0.042286   
H392     H      0.896920000000     0.060610000000     0.522610000000     0.0422697  
H393     H      0.929790000000     0.921600000000     0.849720000000     0.033707   
H394     H      0.910050000000     0.970020000000     0.603220000000     0.0284378  
H395     H      0.999440000000     0.018730000000     0.755550000000     0.039585   
H396     H      0.897180000000     0.931350000000     0.701020000000     0.0384221  
H397     H      0.901660000000     0.968450000000     0.653560000000     0.0646997  
H398     H      0.893640000000     0.931430000000     0.752560000000     0.0414064  
H399     H      0.007010000000     0.979180000000     0.674520000000     0.124508   
H400     H      0.924690000000     0.920710000000     0.798070000000     0.0568224  
H401     H      0.966130000000     0.028510000000     0.789450000000     0.0531178  
H402     H      0.002730000000     0.018840000000     0.704390000000     0.0483208  
H403     H      0.971210000000     0.028780000000     0.840870000000     0.0237994  
H404     H      0.034390000000     0.042390000000     0.111330000000     0.027658   
H405     H      0.958670000000     0.986790000000     0.340100000000     0.0171667  
H406     H      0.072220000000     0.034030000000     0.207220000000     0.0424121  
H407     H      0.966190000000     0.947390000000     0.259200000000     0.036718   
H408     H      0.962820000000     0.985770000000     0.289960000000     0.0628572  
H409     H      0.966490000000     0.946470000000     0.207810000000     0.0409744  
H410     H      0.070760000000     0.001510000000     0.306100000000     0.117296   
H411     H      0.040230000000     0.043960000000     0.162890000000     0.054747   
H412     H      0.996590000000     0.935850000000     0.172420000000     0.0489454  
H413     H      0.071540000000     0.035370000000     0.258870000000     0.0411263  
H414     H      0.990630000000     0.934910000000     0.121050000000     0.0206577  
H415     H      0.849290000000     0.841350000000     0.929300000000     0.0656725  
H416     H      0.565780000000     0.642800000000     0.015800000000     0.0546221  
H417     H      0.733050000000     0.751910000000     0.930900000000     0.0417147  
H418     H      0.679660000000     0.751170000000     0.019410000000     0.039029   
H419     H      0.611140000000     0.700700000000     0.002410000000     0.0680152  
H420     H      0.727740000000     0.804140000000     0.999160000000     0.0404507  
H421     H      0.690120000000     0.667810000000     0.005230000000     0.115252   
H422     H      0.793690000000     0.789710000000     0.938110000000     0.0596663  
H423     H      0.748060000000     0.847940000000     0.963120000000     0.0526579  
H424     H      0.686340000000     0.698910000000     0.952270000000     0.0390928  
H425     H      0.804730000000     0.898650000000     0.955750000000     0.0286483  
H426     H      0.117470000000     0.122230000000     0.031080000000     0.0273524  
H427     H      0.399800000000     0.326290000000     0.945190000000     0.0279601  
H428     H      0.234220000000     0.210480000000     0.033160000000     0.0401234  
H429     H      0.288620000000     0.217010000000     0.943340000000     0.0393752  
H430     H      0.356370000000     0.267720000000     0.959180000000     0.0656132  
H431     H      0.240470000000     0.162850000000     0.961900000000     0.0409935  
H432     H      0.276350000000     0.297890000000     0.963550000000     0.116072   
H433     H      0.173190000000     0.173980000000     0.023350000000     0.0532032  
H434     H      0.219320000000     0.116920000000     0.996880000000     0.0537988  
H435     H      0.281180000000     0.264620000000     0.013720000000     0.0397866  
H436     H      0.162690000000     0.065870000000     0.003670000000     0.0224303  
H437     H      0.873840000000     0.975930000000     0.058460000000     0.0207269  
H438     H      0.645630000000     0.006140000000     0.947500000000     0.0222107  
H439     H      0.819120000000     0.070210000000     0.052650000000     0.0422988  
H440     H      0.739660000000     0.989940000000     0.981270000000     0.0356875  
H441     H      0.707710000000     0.019830000000     0.957270000000     0.0608187  
H442     H      0.799310000000     0.996460000000     0.994460000000     0.0426816  
H443     H      0.695870000000     0.016880000000     0.047130000000     0.116503   
H444     H      0.820010000000     0.981340000000     0.051360000000     0.0578043  
H445     H      0.883400000000     0.085710000000     0.020740000000     0.0517346  
H446     H      0.758940000000     0.063800000000     0.039430000000     0.0401391  
H447     H      0.937480000000     0.079250000000     0.027720000000     0.020745   
H448     H      0.038140000000     0.919870000000     0.889010000000     0.0281441  
H449     H      0.314270000000     0.953120000000     0.977350000000     0.0305992  
H450     H      0.135880000000     0.864870000000     0.938830000000     0.0413329  
H451     H      0.220380000000     0.972880000000     0.887680000000     0.0435165  
H452     H      0.250670000000     0.932450000000     0.967150000000     0.064454   
H453     H      0.156410000000     0.956070000000     0.885660000000     0.0432755  
H454     H      0.268200000000     0.956630000000     0.877200000000     0.11994    
H455     H      0.089350000000     0.915680000000     0.875060000000     0.0574383  
H456     H      0.112230000000     0.892730000000     0.963870000000     0.0531937  
H457     H      0.199820000000     0.882120000000     0.941370000000     0.0370195  
H458     H      0.062360000000     0.897620000000     0.976650000000     0.0237088  
H459     H      0.922850000000     0.591370000000     0.933100000000     0.0366502  
H460     H      0.943880000000     0.822760000000     0.031190000000     0.0200791  
H461     H      0.933120000000     0.692210000000     0.938420000000     0.0424951  
H462     H      0.884520000000     0.704390000000     0.024330000000     0.0366865  
H463     H      0.930370000000     0.764660000000     0.030170000000     0.0629859  
H464     H      0.887460000000     0.652730000000     0.020960000000     0.0416609  
H465     H      0.888470000000     0.765160000000     0.942960000000     0.116617   
H466     H      0.902310000000     0.632140000000     0.934350000000     0.0584723  
H467     H      0.936970000000     0.641160000000     0.023710000000     0.0561935  
H468     H      0.929790000000     0.743130000000     0.941650000000     0.0420306  
H469     H      0.956170000000     0.600030000000     0.022070000000     0.0347596  
H470     H      0.067310000000     0.140860000000     0.016350000000     0.0268111  
H471     H      0.011470000000     0.362820000000     0.934360000000     0.024212   
H472     H      0.038930000000     0.219620000000     0.016660000000     0.041769   
H473     H      0.079990000000     0.309890000000     0.937170000000     0.0367413  
H474     H      0.029170000000     0.320440000000     0.933370000000     0.0633702  
H475     H      0.086840000000     0.260040000000     0.935050000000     0.0413488  
H476     H      0.061950000000     0.328610000000     0.022960000000     0.11613    
H477     H      0.081550000000     0.198880000000     0.017270000000     0.0543782  
H478     H      0.044320000000     0.200020000000     0.928630000000     0.0538363  
H479     H      0.031900000000     0.268800000000     0.018670000000     0.0411974  
H480     H      0.031240000000     0.142030000000     0.928100000000     0.0245094  
N1       N      0.491220000000     0.469400000000     0.852000000000    -0.241491   
N2       N      0.501190000000     0.481030000000     0.611470000000    -0.192425   
N3       N      0.475520000000     0.499950000000     0.346170000000    -0.242413   
N4       N      0.480010000000     0.504190000000     0.105730000000    -0.191564   
N5       N      0.422380000000     0.824430000000     0.481720000000    -0.240955   
N6       N      0.437010000000     0.593360000000     0.486290000000    -0.193745   
N7       N      0.518030000000     0.127860000000     0.449060000000    -0.24665    
N8       N      0.512340000000     0.368960000000     0.472950000000    -0.194184   
N9       N      0.510530000000     0.001310000000     0.833740000000    -0.23906    
N10      N      0.519050000000     0.997030000000     0.593170000000    -0.19137    
N11      N      0.443040000000     0.960960000000     0.333460000000    -0.237657   
N12      N      0.454490000000     0.974110000000     0.091270000000    -0.189614   
N13      N      0.502080000000     0.630240000000     0.949730000000    -0.237976   
N14      N      0.513420000000     0.884980000000     0.915800000000    -0.192648   
N15      N      0.454890000000     0.089040000000     0.017030000000    -0.241654   
N16      N      0.460190000000     0.339920000000     0.006440000000    -0.19062    
N17      N      0.864320000000     0.351250000000     0.433890000000    -0.242081   
N18      N      0.629870000000     0.095570000000     0.491930000000    -0.193431   
N19      N      0.329500000000     0.858820000000     0.438540000000    -0.240525   
N20      N      0.099070000000     0.616910000000     0.524410000000    -0.193333   
N21      N      0.866410000000     0.516650000000     0.509980000000    -0.244186   
N22      N      0.606170000000     0.504760000000     0.428360000000    -0.197003   
N23      N      0.369830000000     0.505800000000     0.521740000000    -0.246177   
N24      N      0.098790000000     0.467740000000     0.456730000000    -0.194898   
N25      N      0.976590000000     0.488660000000     0.845230000000    -0.243833   
N26      N      0.978870000000     0.499480000000     0.604120000000    -0.194244   
N27      N      0.005980000000     0.486200000000     0.109160000000    -0.243056   
N28      N      0.997580000000     0.476030000000     0.349890000000    -0.196671   
N29      N      0.624720000000     0.105500000000     0.915820000000    -0.240213   
N30      N      0.876840000000     0.352040000000     0.922060000000    -0.190885   
N31      N      0.096200000000     0.619360000000     0.028560000000    -0.240718   
N32      N      0.339210000000     0.871190000000     0.009330000000    -0.190368   
N33      N      0.869300000000     0.500870000000     0.015720000000    -0.245942   
N34      N      0.596950000000     0.465910000000     0.955980000000    -0.196588   
N35      N      0.369470000000     0.519050000000     0.013520000000    -0.242226   
N36      N      0.107680000000     0.499350000000     0.927910000000    -0.197471   
N37      N      0.846990000000     0.869360000000     0.525620000000    -0.237272   
N38      N      0.596170000000     0.620400000000     0.534590000000    -0.191891   
N39      N      0.128790000000     0.108970000000     0.431840000000    -0.238353   
N40      N      0.374680000000     0.360610000000     0.420130000000    -0.190935   
N41      N      0.834660000000     0.967970000000     0.454340000000    -0.240382   
N42      N      0.555730000000     0.935750000000     0.401450000000    -0.195191   
N43      N      0.147030000000     0.019540000000     0.506770000000    -0.241086   
N44      N      0.413390000000     0.038850000000     0.530780000000    -0.193836   
N45      N      0.002030000000     0.631060000000     0.451870000000    -0.235296   
N46      N      0.015620000000     0.888170000000     0.431030000000    -0.189905   
N47      N      0.957120000000     0.338610000000     0.500530000000    -0.2389     
N48      N      0.954130000000     0.087750000000     0.529850000000    -0.1903     
N49      N      0.963320000000     0.975890000000     0.609690000000    -0.241117   
N50      N      0.951630000000     0.975310000000     0.849310000000    -0.191476   
N51      N      0.012020000000     0.994560000000     0.352660000000    -0.240164   
N52      N      0.011570000000     0.988520000000     0.112180000000    -0.193526   
N53      N      0.601410000000     0.622130000000     0.016450000000    -0.240508   
N54      N      0.831820000000     0.873470000000     0.943560000000    -0.18869    
N55      N      0.363620000000     0.345590000000     0.948000000000    -0.242508   
N56      N      0.135320000000     0.090420000000     0.016630000000    -0.192944   
N57      N      0.634540000000     0.003610000000     0.991400000000    -0.240269   
N58      N      0.909050000000     0.026670000000     0.042010000000    -0.198006   
N59      N      0.328270000000     0.966230000000     0.933400000000    -0.238808   
N60      N      0.047720000000     0.910460000000     0.933820000000    -0.191946   
N61      N      0.926060000000     0.827950000000     0.987390000000    -0.244293   
N62      N      0.941710000000     0.593100000000     0.977280000000    -0.191012   
N63      N      0.025500000000     0.369850000000     0.979180000000    -0.243585   
N64      N      0.046600000000     0.136650000000     0.972530000000    -0.194044   
O1       O      0.098070000000     0.039380000000     0.999310000000    -0.384606   
O2       O      0.074620000000     0.063860000000     0.022800000000    -0.365889   
O3       O      0.971750000000     0.005310000000     0.888900000000    -0.373151   
O4       O      0.949960000000     0.948530000000     0.894100000000    -0.36997    
O5       O      0.021250000000     0.087520000000     0.950270000000    -0.37455    
O6       O      0.031640000000     0.086590000000     0.998540000000    -0.369849   
O7       O      0.034300000000     0.933350000000     0.967430000000    -0.343854   
O8       O      0.000340000000     0.922260000000     0.926800000000    -0.350079   
O9       O      0.087330000000     0.012690000000     0.933200000000    -0.365516   
O10      O      0.102050000000     0.982720000000     0.993190000000    -0.523624   
O11      O      0.041370000000     0.064620000000     0.903570000000    -0.521624   
O12      O      0.956050000000     0.054230000000     0.911000000000    -0.345939   
O13      O      0.035690000000     0.034000000000     0.972400000000    -0.496934   
O14      O      0.010720000000     0.988300000000     0.936140000000    -0.625513   
O15      O      0.950090000000     0.876580000000     0.010540000000    -0.37492    
O16      O      0.939000000000     0.878150000000     0.962370000000    -0.335677   
O17      O      0.927850000000     0.989650000000     0.034530000000    -0.346153   
O18      O      0.968040000000     0.043450000000     0.033350000000    -0.366837   
O19      O      0.869230000000     0.923180000000     0.962660000000    -0.380385   
O20      O      0.892590000000     0.900230000000     0.937240000000    -0.348834   
O21      O      0.992160000000     0.958280000000     0.072740000000    -0.377759   
O22      O      0.015380000000     0.015280000000     0.067160000000    -0.376031   
O23      O      0.925380000000     0.897130000000     0.056960000000    -0.523253   
O24      O      0.013740000000     0.912120000000     0.050560000000    -0.341114   
O25      O      0.855990000000     0.947270000000     0.005440000000    -0.339111   
O26      O      0.891590000000     0.008880000000     0.965920000000    -0.536082   
O27      O      0.931190000000     0.928920000000     0.989150000000    -0.628622   
O28      O      0.957270000000     0.975390000000     0.024560000000    -0.461722   
O29      O      0.999610000000     0.938970000000     0.983550000000    -0.477692   
O30      O      0.966530000000     0.025370000000     0.977870000000    -0.627836   
O31      O      0.027770000000     0.986120000000     0.019630000000    -0.62755    
O32      O      0.939670000000     0.977880000000     0.941990000000    -0.497613   
O33      O      0.980710000000     0.910190000000     0.440910000000    -0.367345   
O34      O      0.040500000000     0.943560000000     0.442200000000    -0.360648   
O35      O      0.888730000000     0.978930000000     0.439070000000    -0.37643    
O36      O      0.882330000000     0.976870000000     0.486440000000    -0.327746   
O37      O      0.978650000000     0.991500000000     0.388690000000    -0.389905   
O38      O      0.034120000000     0.996940000000     0.399540000000    -0.33346    
O39      O      0.900610000000     0.890640000000     0.504610000000    -0.338578   
O40      O      0.887740000000     0.926440000000     0.523550000000    -0.3558     
O41      O      0.917220000000     0.864030000000     0.465290000000    -0.299135   
O42      O      0.978460000000     0.884810000000     0.513950000000    -0.528599   
O43      O      0.905810000000     0.951550000000     0.397530000000    -0.519042   
O44      O      0.948330000000     0.038500000000     0.403040000000    -0.345407   
O45      O      0.978820000000     0.957500000000     0.441460000000    -0.484284   
O46      O      0.927630000000     0.950330000000     0.470780000000    -0.63566    
O47      O      0.997890000000     0.980880000000     0.573720000000    -0.346276   
O48      O      0.943580000000     0.977950000000     0.562520000000    -0.373014   
O49      O      0.077090000000     0.087280000000     0.455460000000    -0.338728   
O50      O      0.090410000000     0.051370000000     0.437170000000    -0.354971   
O51      O      0.991010000000     0.075890000000     0.508780000000    -0.384289   
O52      O      0.936320000000     0.032890000000     0.521110000000    -0.352177   
O53      O      0.091440000000     0.002640000000     0.522740000000    -0.331585   
O54      O      0.098420000000     0.006610000000     0.475180000000    -0.36796    
O55      O      0.070320000000     0.025180000000     0.566080000000    -0.513297   
O56      O      0.033810000000     0.939600000000     0.557790000000    -0.324957   
O57      O      0.065690000000     0.104110000000     0.507140000000    -0.310905   
O58      O      0.010020000000     0.097000000000     0.445830000000    -0.516917   
O59      O      0.000170000000     0.020020000000     0.520800000000    -0.634708   
O60      O      0.051040000000     0.026580000000     0.491340000000    -0.50543    
O61      O      0.967650000000     0.949250000000     0.522590000000    -0.502265   
O62      O      0.010960000000     0.028110000000     0.439480000000    -0.634264   
O63      O      0.020710000000     0.955580000000     0.492530000000    -0.630858   
O64      O      0.958800000000     0.021870000000     0.469690000000    -0.495527   
O65      O      0.016460000000     0.405660000000     0.002980000000    -0.340955   
O66      O      0.004490000000     0.403820000000     0.955020000000    -0.371375   
O67      O      0.890440000000     0.472270000000     0.995740000000    -0.340726   
O68      O      0.926050000000     0.508110000000     0.029000000000    -0.355309   
O69      O      0.892110000000     0.394870000000     0.949890000000    -0.38288    
O70      O      0.935780000000     0.394750000000     0.926880000000    -0.36641    
O71      O      0.007650000000     0.465000000000     0.068290000000    -0.377211   
O72      O      0.995530000000     0.508470000000     0.065140000000    -0.345335   
O73      O      0.967800000000     0.394650000000     0.049610000000    -0.342473   
O74      O      0.059460000000     0.452050000000     0.045510000000    -0.516191   
O75      O      0.892000000000     0.397020000000     0.023070000000    -0.533232   
O76      O      0.850830000000     0.413320000000     0.971660000000    -0.325628   
O77      O      0.960470000000     0.423190000000     0.983520000000    -0.508408   
O78      O      0.957720000000     0.460330000000     0.021910000000    -0.636122   
O79      O      0.081610000000     0.576180000000     0.001520000000    -0.352615   
O80      O      0.038110000000     0.574650000000     0.026030000000    -0.353762   
O81      O      0.972700000000     0.507370000000     0.886630000000    -0.342994   
O82      O      0.982020000000     0.462330000000     0.888830000000    -0.378513   
O83      O      0.952050000000     0.558820000000     0.952510000000    -0.354151   
O84      O      0.967990000000     0.563060000000     0.999900000000    -0.368328   
O85      O      0.065170000000     0.516190000000     0.924810000000    -0.354026   
O86      O      0.047160000000     0.462280000000     0.923090000000    -0.35657    
O87      O      0.106540000000     0.581830000000     0.949870000000    -0.526199   
O88      O      0.110640000000     0.521810000000     0.991290000000    -0.367047   
O89      O      0.006480000000     0.576690000000     0.908120000000    -0.323947   
O90      O      0.915470000000     0.514710000000     0.907030000000    -0.519076   
O91      O      0.014630000000     0.545390000000     0.970860000000    -0.632785   
O92      O      0.016140000000     0.508030000000     0.933460000000    -0.468813   
O93      O      0.032330000000     0.506790000000     0.015600000000    -0.491529   
O94      O      0.942160000000     0.461910000000     0.938540000000    -0.630148   
O95      O      0.034030000000     0.470400000000     0.977960000000    -0.627283   
O96      O      0.941830000000     0.497730000000     0.976490000000    -0.483076   
O97      O      0.962150000000     0.386360000000     0.516740000000    -0.375584   
O98      O      0.971240000000     0.386320000000     0.470330000000    -0.311065   
O99      O      0.883390000000     0.483250000000     0.492380000000    -0.387499   
O100     O      0.926510000000     0.532080000000     0.509980000000    -0.332844   
O101     O      0.882880000000     0.403290000000     0.447880000000    -0.390893   
O102     O      0.924150000000     0.391940000000     0.433250000000    -0.318646   
O103     O      0.975770000000     0.469720000000     0.567780000000    -0.38187    
O104     O      0.979320000000     0.521180000000     0.557390000000    -0.372297   
O105     O      0.919400000000     0.402090000000     0.551770000000    -0.344531   
O106     O      0.012010000000     0.430650000000     0.559980000000    -0.523687   
O107     O      0.849520000000     0.418400000000     0.483400000000    -0.515642   
O108     O      0.878350000000     0.472140000000     0.424610000000    -0.351482   
O109     O      0.939280000000     0.427430000000     0.482000000000    -0.502325   
O110     O      0.939670000000     0.471760000000     0.511690000000    -0.633328   
O111     O      0.080710000000     0.565230000000     0.509970000000    -0.385174   
O112     O      0.038880000000     0.578290000000     0.520710000000    -0.360672   
O113     O      0.996110000000     0.504240000000     0.385800000000    -0.378106   
O114     O      0.988760000000     0.451260000000     0.395900000000    -0.366056   
O115     O      0.997540000000     0.583570000000     0.435330000000    -0.333832   
O116     O      0.990370000000     0.583960000000     0.482140000000    -0.355559   
O117     O      0.065830000000     0.494610000000     0.444180000000    -0.350211   
O118     O      0.037510000000     0.439270000000     0.446480000000    -0.343443   
O119     O      0.117560000000     0.552970000000     0.476700000000    -0.521471   
O120     O      0.086900000000     0.490480000000     0.519830000000    -0.366312   
O121     O      0.041210000000     0.572600000000     0.400440000000    -0.306602   
O122     O      0.947070000000     0.533690000000     0.392490000000    -0.521252   
O123     O      0.024420000000     0.544060000000     0.470540000000    -0.632787   
O124     O      0.023400000000     0.499330000000     0.441320000000    -0.461148   
O125     O      0.014800000000     0.500830000000     0.521500000000    -0.491906   
O126     O      0.948470000000     0.469990000000     0.430930000000    -0.632392   
O127     O      0.014730000000     0.455040000000     0.492130000000    -0.628282   
O128     O      0.948810000000     0.516210000000     0.461060000000    -0.492511   
O129     O      0.383540000000     0.979720000000     0.918960000000    -0.332207   
O130     O      0.375690000000     0.977120000000     0.966150000000    -0.359614   
O131     O      0.477320000000     0.899190000000     0.935220000000    -0.379769   
O132     O      0.533010000000     0.940640000000     0.923440000000    -0.3633     
O133     O      0.391100000000     0.890920000000     0.986540000000    -0.378528   
O134     O      0.379300000000     0.928310000000     0.004150000000    -0.359846   
O135     O      0.476410000000     0.997910000000     0.869510000000    -0.336518   
O136     O      0.528900000000     0.997240000000     0.881230000000    -0.373941   
O137     O      0.402950000000     0.956950000000     0.875370000000    -0.27992    
O138     O      0.445080000000     0.042440000000     0.886360000000    -0.523851   
O139     O      0.401820000000     0.877640000000     0.932080000000    -0.525056   
O140     O      0.452750000000     0.874920000000     0.994580000000    -0.341426   
O141     O      0.420300000000     0.952990000000     0.950960000000    -0.501302   
O142     O      0.471070000000     0.957330000000     0.921990000000    -0.634798   
O143     O      0.571880000000     0.085250000000     0.937350000000    -0.343215   
O144     O      0.585240000000     0.048120000000     0.921270000000    -0.36624    
O145     O      0.489510000000     0.979710000000     0.055520000000    -0.373965   
O146     O      0.435780000000     0.978100000000     0.043920000000    -0.363348   
O147     O      0.580150000000     0.993010000000     0.005880000000    -0.337443   
O148     O      0.588000000000     0.996200000000     0.958630000000    -0.372782   
O149     O      0.489500000000     0.075330000000     0.994520000000    -0.376714   
O150     O      0.432890000000     0.034640000000     0.004530000000    -0.334877   
O151     O      0.563130000000     0.102850000000     0.988380000000    -0.516368   
O152     O      0.505280000000     0.097910000000     0.929890000000    -0.339775   
O153     O      0.563270000000     0.021340000000     0.047770000000    -0.304966   
O154     O      0.518810000000     0.934140000000     0.039510000000    -0.526675   
O155     O      0.544070000000     0.023700000000     0.973880000000    -0.638479   
O156     O      0.493390000000     0.018830000000     0.002840000000    -0.498315   
O157     O      0.506880000000     0.028160000000     0.921750000000    -0.499082   
O158     O      0.457960000000     0.948070000000     0.003130000000    -0.635218   
O159     O      0.454150000000     0.023660000000     0.951250000000    -0.635724   
O160     O      0.509670000000     0.952420000000     0.973650000000    -0.49379    
O161     O      0.494970000000     0.077170000000     0.429680000000    -0.34357    
O162     O      0.518550000000     0.083020000000     0.475440000000    -0.378268   
O163     O      0.365360000000     0.910690000000     0.454160000000    -0.385797   
O164     O      0.389440000000     0.888440000000     0.428700000000    -0.311952   
O165     O      0.409240000000     0.995330000000     0.509780000000    -0.383096   
O166     O      0.463690000000     0.042320000000     0.514020000000    -0.361667   
O167     O      0.460390000000     0.993050000000     0.371700000000    -0.370525   
O168     O      0.443570000000     0.937290000000     0.379590000000    -0.321767   
O169     O      0.430940000000     0.032620000000     0.392930000000    -0.333396   
O170     O      0.521600000000     0.060010000000     0.382960000000    -0.523186   
O171     O      0.372840000000     0.983240000000     0.448440000000    -0.532873   
O172     O      0.363710000000     0.926810000000     0.507450000000    -0.328535   
O173     O      0.456530000000     0.016920000000     0.461440000000    -0.498894   
O174     O      0.430030000000     0.966160000000     0.428280000000    -0.638215   
O175     O      0.533210000000     0.970680000000     0.406530000000    -0.348682   
O176     O      0.496810000000     0.916020000000     0.412180000000    -0.33673    
O177     O      0.501210000000     0.963830000000     0.555570000000    -0.379498   
O178     O      0.516500000000     0.019260000000     0.547050000000    -0.374566   
O179     O      0.448890000000     0.876300000000     0.499610000000    -0.373309   
O180     O      0.438750000000     0.872340000000     0.451720000000    -0.311484   
O181     O      0.593570000000     0.045230000000     0.473520000000    -0.383122   
O182     O      0.569570000000     0.066500000000     0.500090000000    -0.367455   
O183     O      0.580780000000     0.963900000000     0.472280000000    -0.532908   
O184     O      0.604520000000     0.024020000000     0.427780000000    -0.338348   
O185     O      0.528900000000     0.921010000000     0.526730000000    -0.356431   
O186     O      0.446390000000     0.899090000000     0.550350000000    -0.51804    
O187     O      0.502860000000     0.938630000000     0.466010000000    -0.627546   
O188     O      0.529360000000     0.989900000000     0.498800000000    -0.502147   
O189     O      0.501090000000     0.983340000000     0.417900000000    -0.46703    
O190     O      0.457850000000     0.972720000000     0.509460000000    -0.637363   
O191     O      0.527000000000     0.032840000000     0.449980000000    -0.631297   
O192     O      0.433000000000     0.923920000000     0.476930000000    -0.499177   
O193     O      0.466790000000     0.388610000000     0.022240000000    -0.368957   
O194     O      0.471760000000     0.386070000000     0.975310000000    -0.360358   
O195     O      0.385100000000     0.483380000000     0.998270000000    -0.386519   
O196     O      0.429260000000     0.534170000000     0.011710000000    -0.321135   
O197     O      0.381850000000     0.398930000000     0.958720000000    -0.350098   
O198     O      0.422000000000     0.387730000000     0.941700000000    -0.35876    
O199     O      0.479420000000     0.473830000000     0.070700000000    -0.379579   
O200     O      0.482970000000     0.525110000000     0.058550000000    -0.365486   
O201     O      0.430430000000     0.404730000000     0.060480000000    -0.336842   
O202     O      0.524370000000     0.441040000000     0.060680000000    -0.529347   
O203     O      0.351210000000     0.417900000000     0.993570000000    -0.509479   
O204     O      0.373850000000     0.465390000000     0.931360000000    -0.352068   
O205     O      0.441160000000     0.427530000000     0.987740000000    -0.502387   
O206     O      0.443310000000     0.473360000000     0.015930000000    -0.634684   
O207     O      0.583040000000     0.569400000000     0.004170000000    -0.353788   
O208     O      0.541870000000     0.581420000000     0.018110000000    -0.354731   
O209     O      0.489690000000     0.498560000000     0.887210000000    -0.381936   
O210     O      0.483320000000     0.446190000000     0.898730000000    -0.33516    
O211     O      0.494520000000     0.581000000000     0.934470000000    -0.375236   
O212     O      0.491350000000     0.584390000000     0.981480000000    -0.311735   
O213     O      0.564040000000     0.492870000000     0.943250000000    -0.353815   
O214     O      0.535400000000     0.437450000000     0.947720000000    -0.353574   
O215     O      0.617360000000     0.553580000000     0.971740000000    -0.516432   
O216     O      0.590080000000     0.494650000000     0.018490000000    -0.360534   
O217     O      0.531640000000     0.567630000000     0.896570000000    -0.332808   
O218     O      0.437950000000     0.526030000000     0.896100000000    -0.526876   
O219     O      0.523200000000     0.543500000000     0.969300000000    -0.638298   
O220     O      0.520490000000     0.497340000000     0.941510000000    -0.466503   
O221     O      0.519060000000     0.504260000000     0.022120000000    -0.497006   
O222     O      0.444650000000     0.466150000000     0.934870000000    -0.633428   
O223     O      0.516780000000     0.456460000000     0.993560000000    -0.629622   
O224     O      0.447200000000     0.514250000000     0.964040000000    -0.492853   
O225     O      0.503380000000     0.402170000000     0.500080000000    -0.367372   
O226     O      0.501190000000     0.410420000000     0.451540000000    -0.371943   
O227     O      0.390570000000     0.480970000000     0.496410000000    -0.372287   
O228     O      0.425250000000     0.509360000000     0.533910000000    -0.335229   
O229     O      0.389490000000     0.403780000000     0.447340000000    -0.381814   
O230     O      0.433620000000     0.403070000000     0.425460000000    -0.364278   
O231     O      0.500910000000     0.461120000000     0.569280000000    -0.38336    
O232     O      0.493190000000     0.507040000000     0.568660000000    -0.37172    
O233     O      0.460310000000     0.393380000000     0.547830000000    -0.341637   
O234     O      0.552780000000     0.448120000000     0.543280000000    -0.525717   
O235     O      0.384770000000     0.402600000000     0.519610000000    -0.536515   
O236     O      0.349740000000     0.425680000000     0.466760000000    -0.327215   
O237     O      0.455870000000     0.428210000000     0.481470000000    -0.498681   
O238     O      0.453740000000     0.462480000000     0.522210000000    -0.630578   
O239     O      0.580990000000     0.577170000000     0.507530000000    -0.386729   
O240     O      0.537730000000     0.575880000000     0.532130000000    -0.364531   
O241     O      0.474690000000     0.519180000000     0.388520000000    -0.338432   
O242     O      0.480520000000     0.472330000000     0.389050000000    -0.380917   
O243     O      0.452560000000     0.565120000000     0.458630000000    -0.365215   
O244     O      0.466140000000     0.565010000000     0.506530000000    -0.369693   
O245     O      0.565110000000     0.522990000000     0.427940000000    -0.351295   
O246     O      0.545270000000     0.469370000000     0.422850000000    -0.358797   
O247     O      0.610930000000     0.583630000000     0.459440000000    -0.522553   
O248     O      0.607000000000     0.519540000000     0.495580000000    -0.367753   
O249     O      0.515090000000     0.588190000000     0.416830000000    -0.335821   
O250     O      0.423460000000     0.532700000000     0.407890000000    -0.518579   
O251     O      0.516070000000     0.550350000000     0.476120000000    -0.6305     
O252     O      0.517460000000     0.515670000000     0.436210000000    -0.470654   
O253     O      0.529310000000     0.506390000000     0.518980000000    -0.497396   
O254     O      0.442210000000     0.471810000000     0.438530000000    -0.632208   
O255     O      0.530540000000     0.472530000000     0.479030000000    -0.626111   
O256     O      0.442700000000     0.505300000000     0.478670000000    -0.490149   
Zr1      Zr     0.051810000000     0.991080000000     0.975310000000     1.36547    
Zr2      Zr     0.992940000000     0.030320000000     0.934670000000     1.36805    
Zr3      Zr     0.974420000000     0.933280000000     0.026900000000     1.3751     
Zr4      Zr     0.915060000000     0.971980000000     0.986310000000     1.35536    
Zr5      Zr     0.009900000000     0.028590000000     0.016100000000     1.38143    
Zr6      Zr     0.957420000000     0.935550000000     0.945000000000     1.3785     
Zr7      Zr     0.958570000000     0.919030000000     0.482540000000     1.37585    
Zr8      Zr     0.949120000000     0.990000000000     0.430590000000     1.38131    
Zr9      Zr     0.029630000000     0.987160000000     0.531630000000     1.41126    
Zr10     Zr     0.020880000000     0.058340000000     0.479640000000     1.41022    
Zr11     Zr     0.041030000000     0.995470000000     0.451400000000     1.38636    
Zr12     Zr     0.937840000000     0.982230000000     0.510510000000     1.37609    
Zr13     Zr     0.004650000000     0.446870000000     0.021220000000     1.40856    
Zr14     Zr     0.915260000000     0.438530000000     0.983020000000     1.38582    
Zr15     Zr     0.060160000000     0.529940000000     0.971500000000     1.38274    
Zr16     Zr     0.969940000000     0.522050000000     0.933480000000     1.40416    
Zr17     Zr     0.989030000000     0.447670000000     0.939530000000     1.36307    
Zr18     Zr     0.985300000000     0.520660000000     0.014630000000     1.37899    
Zr19     Zr     0.972290000000     0.442250000000     0.526040000000     1.37835    
Zr20     Zr     0.908190000000     0.457770000000     0.466580000000     1.38998    
Zr21     Zr     0.055740000000     0.513700000000     0.486120000000     1.36615    
Zr22     Zr     0.990730000000     0.528650000000     0.426630000000     1.3875     
Zr23     Zr     0.981110000000     0.440210000000     0.447080000000     1.38314    
Zr24     Zr     0.982250000000     0.530620000000     0.505640000000     1.37201    
Zr25     Zr     0.444750000000     0.992890000000     0.911350000000     1.40789    
Zr26     Zr     0.447330000000     0.918490000000     0.962400000000     1.38991    
Zr27     Zr     0.516340000000     0.057680000000     0.962350000000     1.40013    
Zr28     Zr     0.520120000000     0.983620000000     0.013430000000     1.39393    
Zr29     Zr     0.430900000000     0.983360000000     0.991620000000     1.37748    
Zr30     Zr     0.533710000000     0.992630000000     0.933520000000     1.36669    
Zr31     Zr     0.477800000000     0.020960000000     0.416140000000     1.39137    
Zr32     Zr     0.410390000000     0.962050000000     0.474310000000     1.39407    
Zr33     Zr     0.548980000000     0.993890000000     0.452700000000     1.35955    
Zr34     Zr     0.481490000000     0.935240000000     0.511190000000     1.37716    
Zr35     Zr     0.505240000000     0.027560000000     0.495800000000     1.37498    
Zr36     Zr     0.453800000000     0.928140000000     0.431030000000     1.40404    
Zr37     Zr     0.477840000000     0.445530000000     0.029900000000     1.38346    
Zr38     Zr     0.407880000000     0.455810000000     0.972810000000     1.40003    
Zr39     Zr     0.556560000000     0.515030000000     0.984470000000     1.37584    
Zr40     Zr     0.485820000000     0.524870000000     0.927390000000     1.38538    
Zr41     Zr     0.479380000000     0.438330000000     0.950440000000     1.38445    
Zr42     Zr     0.484490000000     0.532180000000     0.006610000000     1.39006    
Zr43     Zr     0.498550000000     0.446320000000     0.520880000000     1.38087    
Zr44     Zr     0.412800000000     0.446040000000     0.481720000000     1.38442    
Zr45     Zr     0.559490000000     0.532270000000     0.476140000000     1.36409    
Zr46     Zr     0.473140000000     0.532000000000     0.436810000000     1.39493    
Zr47     Zr     0.487160000000     0.455250000000     0.439040000000     1.3765     
Zr48     Zr     0.484460000000     0.523000000000     0.518660000000     1.37318    


