data_structure

_audit_creation_method RASPA-1.0
_audit_creation_date 2023-5-19
_audit_author_name 'Poobodin Mano'

_cell_length_a    29.6564
_cell_length_b    60.228
_cell_length_c    23.962
_cell_angle_alpha 90.0024
_cell_angle_beta  90.0023
_cell_angle_gamma 89.9675
_cell_volume      42799.6

_symmetry_cell_setting          triclinic
_symmetry_space_group_name_Hall 'P 1'
_symmetry_space_group_name_H-M  'P 1'
_symmetry_Int_Tables_number     1

_symmetry_equiv_pos_as_xyz 'x,y,z'

loop_
_atom_site_label
_atom_site_type_symbol
_atom_site_fract_x
_atom_site_fract_y
_atom_site_fract_z
_atom_site_charge
C1       C      0.060460000000     0.380050000000     0.208270000000     0.404924   
C2       C      0.038650000000     0.495530000000     0.018120000000     0.404026   
C3       C      0.035920000000     0.380080000000     0.023370000000     0.406489   
C4       C      0.063660000000     0.495530000000     0.211630000000     0.403875   
C5       C      0.218720000000     0.495530000000     0.180800000000     0.404746   
C6       C      0.197070000000     0.380090000000     0.490570000000     0.404993   
C7       C      0.193920000000     0.495570000000     0.487650000000     0.403613   
C8       C      0.221520000000     0.380090000000     0.175830000000     0.406141   
C9       C      0.446980000000     0.245110000000     0.458570000000     0.40442    
C10      C      0.468650000000     0.129630000000     0.267890000000     0.40439    
C11      C      0.471140000000     0.245100000000     0.272490000000     0.405951   
C12      C      0.443550000000     0.129620000000     0.461910000000     0.404789   
C13      C      0.288850000000     0.129680000000     0.430990000000     0.404419   
C14      C      0.310620000000     0.245110000000     0.240560000000     0.40476    
C15      C      0.313810000000     0.129640000000     0.237450000000     0.404329   
C16      C      0.285980000000     0.245100000000     0.425710000000     0.406244   
C17      C      0.265490000000     0.074840000000     0.197280000000    -0.0807317  
C18      C      0.273920000000     0.050300000000     0.211230000000    -0.0811382  
C19      C      0.234950000000     0.035600000000     0.191180000000     0.00709737 
C20      C      0.304180000000     0.089440000000     0.218500000000     0.00701473 
C21      C      0.242270000000     0.050360000000     0.447630000000    -0.0805649  
C22      C      0.233790000000     0.074900000000     0.461570000000    -0.0813497  
C23      C      0.272750000000     0.089600000000     0.441550000000     0.00739103 
C24      C      0.203580000000     0.035750000000     0.468770000000     0.00673028 
C25      C      0.264810000000     0.300360000000     0.196150000000    -0.0807849  
C26      C      0.274290000000     0.324860000000     0.209460000000    -0.081502   
C27      C      0.238490000000     0.340060000000     0.183570000000     0.00801761 
C28      C      0.300330000000     0.285240000000     0.222870000000     0.00720122 
C29      C      0.023800000000     0.074860000000     0.237580000000    -0.081462   
C30      C      0.015290000000     0.050320000000     0.251460000000    -0.0804675  
C31      C      0.054200000000     0.035710000000     0.230830000000     0.00679127 
C32      C      0.484660000000     0.089550000000     0.257110000000     0.00764183 
C33      C      0.483180000000     0.324860000000     0.489790000000    -0.0814931  
C34      C      0.492680000000     0.300350000000     0.003100000000    -0.0811402  
C35      C      0.457250000000     0.285230000000     0.476230000000     0.00730518 
C36      C      0.018900000000     0.340060000000     0.015790000000     0.00778652 
C37      C      0.483310000000     0.050290000000     0.488040000000    -0.081183   
C38      C      0.491770000000     0.074830000000     0.001970000000    -0.0809919  
C39      C      0.452920000000     0.089430000000     0.481150000000     0.00705899 
C40      C      0.022440000000     0.035600000000     0.007680000000     0.00697907 
C41      C      0.233270000000     0.300340000000     0.459310000000    -0.0812695  
C42      C      0.242830000000     0.324840000000     0.446090000000    -0.0810558  
C43      C      0.207330000000     0.339970000000     0.472810000000     0.00763091 
C44      C      0.269040000000     0.285140000000     0.433440000000     0.0077794  
C45      C      0.014320000000     0.324820000000     0.252050000000    -0.080997   
C46      C      0.023820000000     0.300320000000     0.238760000000    -0.081218   
C47      C      0.487770000000     0.285150000000     0.264120000000     0.00763579 
C48      C      0.050120000000     0.339920000000     0.225850000000     0.00737661 
H1       H      0.035640000000     0.468620000000     0.117960000000     0.194483   
H2       H      0.113740000000     0.406580000000     0.484000000000     0.195811   
H3       H      0.221760000000     0.468630000000     0.081090000000     0.192612   
H4       H      0.143740000000     0.406570000000     0.214910000000     0.195848   
H5       H      0.065250000000     0.447340000000     0.415130000000     0.137285   
H6       H      0.160150000000     0.450650000000     0.386240000000     0.19497    
H7       H      0.278030000000     0.446920000000     0.015830000000     0.124815   
H8       H      0.298280000000     0.434280000000     0.118240000000     0.190458   
H9       H      0.191390000000     0.447040000000     0.283850000000     0.136255   
H10      H      0.093810000000     0.422720000000     0.312200000000     0.195507   
H11      H      0.478850000000     0.431020000000     0.180750000000     0.132815   
H12      H      0.459550000000     0.445560000000     0.078850000000     0.186237   
H13      H      0.305720000000     0.443540000000     0.183460000000     0.203731   
H14      H      0.096420000000     0.450480000000     0.313000000000     0.195042   
H15      H      0.451270000000     0.433690000000     0.016540000000     0.204575   
H16      H      0.162410000000     0.422890000000     0.386930000000     0.195217   
H17      H      0.471880000000     0.156490000000     0.368170000000     0.194621   
H18      H      0.393810000000     0.218600000000     0.234220000000     0.190303   
H19      H      0.285760000000     0.156570000000     0.331000000000     0.194671   
H20      H      0.363750000000     0.218600000000     0.464930000000     0.193783   
H21      H      0.440530000000     0.196230000000     0.165210000000     0.127097   
H22      H      0.352820000000     0.175050000000     0.137830000000     0.196959   
H23      H      0.229050000000     0.194280000000     0.268120000000     0.132772   
H24      H      0.209720000000     0.179590000000     0.369900000000     0.186339   
H25      H      0.316880000000     0.178730000000     0.034000000000     0.138165   
H26      H      0.404940000000     0.202140000000     0.059560000000     0.187443   
H27      H      0.028560000000     0.194650000000     0.431230000000     0.134358   
H28      H      0.047180000000     0.178390000000     0.330650000000     0.186954   
H29      H      0.201330000000     0.191610000000     0.432030000000     0.204647   
H30      H      0.421380000000     0.175700000000     0.066330000000     0.202755   
H31      H      0.056520000000     0.193070000000     0.272500000000     0.2045     
H32      H      0.337770000000     0.201810000000     0.134860000000     0.195929   
H33      H      0.336200000000     0.084540000000     0.197720000000     0.030564   
H34      H      0.307820000000     0.086710000000     0.264220000000     0.0384463  
H35      H      0.203330000000     0.040540000000     0.212850000000     0.0330062  
H36      H      0.230390000000     0.038040000000     0.145470000000     0.0354426  
H37      H      0.277700000000     0.048330000000     0.257170000000     0.041968   
H38      H      0.305680000000     0.044740000000     0.190820000000     0.0430852  
H39      H      0.270670000000     0.007870000000     0.229560000000     0.0958349  
H40      H      0.262340000000     0.076840000000     0.151280000000     0.0421608  
H41      H      0.233470000000     0.080370000000     0.217090000000     0.0447534  
H42      H      0.276510000000     0.117140000000     0.171390000000     0.0985375  
H43      H      0.171580000000     0.040640000000     0.447900000000     0.0303543  
H44      H      0.199870000000     0.038490000000     0.014480000000     0.0383401  
H45      H      0.304350000000     0.084690000000     0.463290000000     0.0330176  
H46      H      0.277360000000     0.087140000000     0.395860000000     0.0354962  
H47      H      0.229980000000     0.076880000000     0.007490000000     0.0422249  
H48      H      0.202040000000     0.080450000000     0.441110000000     0.0434579  
H49      H      0.237040000000     0.117330000000     0.479960000000     0.097311   
H50      H      0.245490000000     0.048360000000     0.401640000000     0.041824   
H51      H      0.274270000000     0.044850000000     0.467520000000     0.0442261  
H52      H      0.231450000000     0.008080000000     0.421790000000     0.0969142  
H53      H      0.300290000000     0.288150000000     0.268760000000     0.038324   
H54      H      0.334260000000     0.289430000000     0.206170000000     0.0298817  
H55      H      0.237860000000     0.337470000000     0.137580000000     0.0353569  
H56      H      0.204810000000     0.335710000000     0.200880000000     0.0335678  
H57      H      0.308000000000     0.329500000000     0.192800000000     0.0436877  
H58      H      0.274440000000     0.327320000000     0.255490000000     0.0428061  
H59      H      0.276680000000     0.367680000000     0.218830000000     0.0985487  
H60      H      0.230930000000     0.295730000000     0.212320000000     0.0446218  
H61      H      0.265110000000     0.297880000000     0.150130000000     0.0418238  
H62      H      0.270240000000     0.257650000000     0.177350000000     0.0968584  
H63      H      0.479690000000     0.087090000000     0.302750000000     0.0355602  
H64      H      0.453220000000     0.084640000000     0.235000000000     0.0330491  
H65      H      0.058290000000     0.038470000000     0.185170000000     0.0386396  
H66      H      0.086000000000     0.040590000000     0.252110000000     0.0301881  
H67      H      0.483460000000     0.044790000000     0.231200000000     0.044568   
H68      H      0.011710000000     0.048330000000     0.297420000000     0.0418944  
H69      H      0.026360000000     0.008030000000     0.277720000000     0.0976318  
H70      H      0.055380000000     0.080410000000     0.258400000000     0.0435428  
H71      H      0.027970000000     0.076810000000     0.191700000000     0.0424417  
H72      H      0.020280000000     0.117260000000     0.218620000000     0.0981463  
H73      H      0.052620000000     0.335700000000     0.498580000000     0.0336192  
H74      H      0.019460000000     0.337470000000     0.061790000000     0.035157   
H75      H      0.423270000000     0.289430000000     0.492820000000     0.0299616  
H76      H      0.457370000000     0.288150000000     0.430340000000     0.0382503  
H77      H      0.492280000000     0.297870000000     0.049110000000     0.0417993  
H78      H      0.026600000000     0.295730000000     0.487030000000     0.0446294  
H79      H      0.487350000000     0.257640000000     0.021780000000     0.0970241  
H80      H      0.483090000000     0.327330000000     0.443770000000     0.0427608  
H81      H      0.449430000000     0.329500000000     0.006360000000     0.043454   
H82      H      0.480580000000     0.367690000000     0.480720000000     0.0973705  
H83      H      0.027270000000     0.038030000000     0.053350000000     0.0356965  
H84      H      0.053910000000     0.040550000000     0.485730000000     0.0329002  
H85      H      0.448960000000     0.086680000000     0.435470000000     0.0385234  
H86      H      0.421050000000     0.084550000000     0.002280000000     0.0302731  
H87      H      0.023650000000     0.080370000000     0.481860000000     0.0448089  
H88      H      0.495210000000     0.076820000000     0.047940000000     0.0423149  
H89      H      0.480550000000     0.117110000000     0.028240000000     0.0984803  
H90      H      0.451700000000     0.044730000000     0.008730000000     0.04317    
H91      H      0.479260000000     0.048340000000     0.442120000000     0.0420368  
H92      H      0.486770000000     0.007890000000     0.469240000000     0.0967802  
H93      H      0.302720000000     0.289460000000     0.450800000000     0.0335678  
H94      H      0.269720000000     0.287740000000     0.387450000000     0.0352414  
H95      H      0.173410000000     0.335810000000     0.456020000000     0.0300099  
H96      H      0.207300000000     0.337030000000     0.018690000000     0.0382623  
H97      H      0.242580000000     0.327340000000     0.400090000000     0.0421905  
H98      H      0.276710000000     0.329440000000     0.462340000000     0.0451069  
H99      H      0.237620000000     0.367560000000     0.427490000000     0.0985133  
H100     H      0.233050000000     0.297860000000     0.005330000000     0.0424108  
H101     H      0.199550000000     0.295740000000     0.442580000000     0.0432889  
H102     H      0.230710000000     0.257530000000     0.468490000000     0.0968756  
H103     H      0.050470000000     0.337030000000     0.179950000000     0.0382908  
H104     H      0.083890000000     0.335670000000     0.242980000000     0.0299861  
H105     H      0.486680000000     0.287760000000     0.310100000000     0.0355095  
H106     H      0.454260000000     0.289500000000     0.246300000000     0.0331094  
H107     H      0.057390000000     0.295630000000     0.255840000000     0.0433343  
H108     H      0.024370000000     0.297890000000     0.192730000000     0.0422323  
H109     H      0.025810000000     0.257520000000     0.228560000000     0.0962488  
H110     H      0.480600000000     0.329510000000     0.235440000000     0.0448689  
H111     H      0.014240000000     0.327270000000     0.298070000000     0.0420936  
H112     H      0.019910000000     0.367510000000     0.271300000000     0.0976277  
N1       N      0.244210000000     0.012100000000     0.202670000000    -0.218337   
N2       N      0.295290000000     0.112970000000     0.206860000000    -0.217664   
N3       N      0.263430000000     0.113100000000     0.452950000000    -0.21826    
N4       N      0.212540000000     0.012230000000     0.457160000000    -0.217939   
N5       N      0.248150000000     0.363490000000     0.195390000000    -0.218115   
N6       N      0.290800000000     0.261770000000     0.211290000000    -0.218621   
N7       N      0.045170000000     0.012190000000     0.242280000000    -0.217637   
N8       N      0.494000000000     0.113040000000     0.245780000000    -0.218054   
N9       N      0.466780000000     0.261770000000     0.487850000000    -0.218402   
N10      N      0.009230000000     0.363490000000     0.003960000000    -0.218326   
N11      N      0.461900000000     0.112960000000     0.492670000000    -0.218019   
N12      N      0.013160000000     0.012110000000     0.496230000000    -0.218106   
N13      N      0.216940000000     0.363430000000     0.461320000000    -0.21808    
N14      N      0.259320000000     0.261710000000     0.445180000000    -0.218358   
N15      N      0.497530000000     0.261710000000     0.252500000000    -0.218573   
N16      N      0.040560000000     0.363390000000     0.237430000000    -0.218402   
O1       O      0.051080000000     0.400170000000     0.222550000000    -0.382183   
O2       O      0.087330000000     0.374790000000     0.168260000000    -0.377072   
O3       O      0.027310000000     0.475400000000     0.006430000000    -0.38237    
O4       O      0.072130000000     0.000850000000     0.049540000000    -0.375656   
O5       O      0.024050000000     0.400210000000     0.012420000000    -0.378188   
O6       O      0.071170000000     0.374760000000     0.051650000000    -0.376124   
O7       O      0.054770000000     0.475410000000     0.226340000000    -0.379938   
O8       O      0.088510000000     0.000770000000     0.169680000000    -0.375832   
O9       O      0.492440000000     0.438810000000     0.213020000000    -0.339796   
O10      O      0.091210000000     0.436780000000     0.293030000000    -0.527351   
O11      O      0.471530000000     0.439210000000     0.044920000000    -0.52322    
O12      O      0.043310000000     0.436330000000     0.429350000000    -0.348307   
O13      O      0.061560000000     0.416560000000     0.112830000000    -0.499055   
O14      O      0.061400000000     0.459010000000     0.112880000000    -0.633665   
O15      O      0.230100000000     0.475400000000     0.192430000000    -0.385151   
O16      O      0.185200000000     0.000860000000     0.149450000000    -0.375829   
O17      O      0.206440000000     0.400210000000     0.476370000000    -0.377219   
O18      O      0.170200000000     0.374820000000     0.030550000000    -0.376916   
O19      O      0.202830000000     0.475450000000     0.472900000000    -0.384526   
O20      O      0.168940000000     0.000810000000     0.029500000000    -0.376209   
O21      O      0.233330000000     0.400210000000     0.186860000000    -0.375057   
O22      O      0.186370000000     0.374780000000     0.147360000000    -0.375971   
O23      O      0.285880000000     0.438810000000     0.153750000000    -0.524965   
O24      O      0.214260000000     0.436480000000     0.269600000000    -0.347333   
O25      O      0.264730000000     0.438560000000     0.484310000000    -0.334475   
O26      O      0.165320000000     0.436930000000     0.406120000000    -0.527239   
O27      O      0.196030000000     0.459010000000     0.086100000000    -0.633857   
O28      O      0.195900000000     0.416580000000     0.086070000000    -0.49744    
O29      O      0.139520000000     0.459290000000     0.183080000000    -0.501047   
O30      O      0.117870000000     0.416300000000     0.015650000000    -0.632801   
O31      O      0.139600000000     0.416300000000     0.183270000000    -0.633083   
O32      O      0.117850000000     0.459330000000     0.015880000000    -0.500895   
O33      O      0.456320000000     0.224990000000     0.472880000000    -0.381455   
O34      O      0.420230000000     0.250370000000     0.418450000000    -0.377167   
O35      O      0.480010000000     0.149760000000     0.256220000000    -0.375838   
O36      O      0.435280000000     0.124320000000     0.299490000000    -0.376001   
O37      O      0.482960000000     0.224980000000     0.261400000000    -0.383528   
O38      O      0.436200000000     0.250410000000     0.301360000000    -0.376735   
O39      O      0.452380000000     0.149740000000     0.476700000000    -0.379878   
O40      O      0.418880000000     0.124380000000     0.419780000000    -0.376532   
O41      O      0.015160000000     0.186230000000     0.462600000000    -0.340926   
O42      O      0.416820000000     0.188680000000     0.043290000000    -0.527953   
O43      O      0.035800000000     0.186120000000     0.298240000000    -0.523976   
O44      O      0.467240000000     0.188320000000     0.179990000000    -0.340781   
O45      O      0.446050000000     0.208650000000     0.363040000000    -0.498861   
O46      O      0.446160000000     0.166120000000     0.363060000000    -0.63345    
O47      O      0.277490000000     0.149810000000     0.442660000000    -0.381307   
O48      O      0.322310000000     0.124340000000     0.399520000000    -0.376086   
O49      O      0.301330000000     0.224990000000     0.226260000000    -0.38379    
O50      O      0.337380000000     0.250380000000     0.280670000000    -0.377099   
O51      O      0.304980000000     0.149750000000     0.222650000000    -0.377887   
O52      O      0.338630000000     0.124390000000     0.279450000000    -0.376249   
O53      O      0.274120000000     0.224980000000     0.436650000000    -0.378931   
O54      O      0.321210000000     0.250410000000     0.397400000000    -0.37621    
O55      O      0.221630000000     0.186010000000     0.403790000000    -0.523133   
O56      O      0.293240000000     0.188830000000     0.019590000000    -0.349337   
O57      O      0.242630000000     0.186430000000     0.235930000000    -0.339772   
O58      O      0.341420000000     0.188240000000     0.155930000000    -0.529718   
O59      O      0.311510000000     0.166170000000     0.336090000000    -0.633958   
O60      O      0.311660000000     0.208630000000     0.336100000000    -0.498826   
O61      O      0.367990000000     0.165890000000     0.433120000000    -0.50003    
O62      O      0.389750000000     0.208840000000     0.265820000000    -0.633416   
O63      O      0.367920000000     0.208860000000     0.433300000000    -0.632944   
O64      O      0.389770000000     0.165900000000     0.265990000000    -0.497624   
Zr1      Zr     0.073180000000     0.437780000000     0.195010000000     1.37627    
Zr2      Zr     0.051870000000     0.437790000000     0.030310000000     1.37628    
Zr3      Zr     0.205560000000     0.437780000000     0.168650000000     1.37691    
Zr4      Zr     0.184210000000     0.437810000000     0.003900000000     1.3757     
Zr5      Zr     0.128760000000     0.395760000000     0.099450000000     1.38091    
Zr6      Zr     0.128690000000     0.479870000000     0.099500000000     1.37956    
Zr7      Zr     0.434340000000     0.187380000000     0.445140000000     1.37632    
Zr8      Zr     0.455830000000     0.187380000000     0.280590000000     1.37596    
Zr9      Zr     0.301950000000     0.187400000000     0.418640000000     1.37643    
Zr10     Zr     0.323370000000     0.187380000000     0.253960000000     1.37594    
Zr11     Zr     0.378830000000     0.229420000000     0.349540000000     1.38049    
Zr12     Zr     0.378830000000     0.145310000000     0.349540000000     1.38014    
C49      C      0.060460000000     0.380050000000     0.708270000000     0.405024   
C50      C      0.038650000000     0.495530000000     0.518120000000     0.404099   
C51      C      0.035920000000     0.380080000000     0.523370000000     0.406216   
C52      C      0.063660000000     0.495530000000     0.711640000000     0.403763   
C53      C      0.218720000000     0.495530000000     0.680800000000     0.404755   
C54      C      0.197070000000     0.380090000000     0.990570000000     0.405102   
C55      C      0.193920000000     0.495570000000     0.987650000000     0.403718   
C56      C      0.221520000000     0.380090000000     0.675830000000     0.406243   
C57      C      0.446980000000     0.245110000000     0.958570000000     0.404489   
C58      C      0.468650000000     0.129630000000     0.767890000000     0.404426   
C59      C      0.471140000000     0.245100000000     0.772490000000     0.405941   
C60      C      0.443550000000     0.129620000000     0.961910000000     0.404839   
C61      C      0.288850000000     0.129680000000     0.930990000000     0.404559   
C62      C      0.310620000000     0.245110000000     0.740560000000     0.404747   
C63      C      0.313810000000     0.129640000000     0.737450000000     0.40439    
C64      C      0.285980000000     0.245100000000     0.925710000000     0.406256   
C65      C      0.265490000000     0.074840000000     0.697280000000    -0.0807312  
C66      C      0.273920000000     0.050300000000     0.711230000000    -0.0811262  
C67      C      0.234960000000     0.035610000000     0.691190000000     0.00702895 
C68      C      0.304180000000     0.089440000000     0.718500000000     0.00700856 
C69      C      0.242280000000     0.050360000000     0.947630000000    -0.0807062  
C70      C      0.233790000000     0.074900000000     0.961570000000    -0.0812428  
C71      C      0.272740000000     0.089600000000     0.941550000000     0.00730483 
C72      C      0.203580000000     0.035750000000     0.968770000000     0.00682944 
C73      C      0.264810000000     0.300360000000     0.696150000000    -0.0807834  
C74      C      0.274290000000     0.324860000000     0.709460000000    -0.0815037  
C75      C      0.238490000000     0.340060000000     0.683570000000     0.00802345 
C76      C      0.300330000000     0.285240000000     0.722880000000     0.00720507 
C77      C      0.023800000000     0.074860000000     0.737580000000    -0.081451   
C78      C      0.015290000000     0.050320000000     0.751470000000    -0.0804927  
C79      C      0.054200000000     0.035710000000     0.730830000000     0.00680295 
C80      C      0.484650000000     0.089550000000     0.757110000000     0.00759012 
C81      C      0.483180000000     0.324860000000     0.989790000000    -0.0812327  
C82      C      0.492680000000     0.300350000000     0.503100000000    -0.0808814  
C83      C      0.457240000000     0.285230000000     0.976230000000     0.0074135  
C84      C      0.018900000000     0.340060000000     0.515790000000     0.00797834 
C85      C      0.483310000000     0.050290000000     0.988040000000    -0.0809464  
C86      C      0.491770000000     0.074830000000     0.501970000000    -0.0807141  
C87      C      0.452920000000     0.089430000000     0.981150000000     0.0072581  
C88      C      0.022440000000     0.035600000000     0.507680000000     0.00722464 
C89      C      0.233270000000     0.300340000000     0.959310000000    -0.0811492  
C90      C      0.242830000000     0.324840000000     0.946090000000    -0.0811179  
C91      C      0.207330000000     0.339970000000     0.972810000000     0.00774143 
C92      C      0.269050000000     0.285140000000     0.933440000000     0.007712   
C93      C      0.014320000000     0.324830000000     0.752050000000    -0.0810696  
C94      C      0.023820000000     0.300320000000     0.738760000000    -0.0812197  
C95      C      0.487760000000     0.285150000000     0.764130000000     0.00757234 
C96      C      0.050120000000     0.339920000000     0.725850000000     0.00744262 
H113     H      0.035640000000     0.468620000000     0.617960000000     0.194485   
H114     H      0.113730000000     0.406580000000     0.984000000000     0.196081   
H115     H      0.221760000000     0.468630000000     0.581090000000     0.192615   
H116     H      0.143740000000     0.406570000000     0.714920000000     0.195735   
H117     H      0.065250000000     0.447340000000     0.915130000000     0.137378   
H118     H      0.160150000000     0.450650000000     0.886240000000     0.194972   
H119     H      0.278030000000     0.446920000000     0.515840000000     0.124801   
H120     H      0.298280000000     0.434280000000     0.618240000000     0.190465   
H121     H      0.191390000000     0.447040000000     0.783850000000     0.136256   
H122     H      0.093810000000     0.422720000000     0.812200000000     0.19551    
H123     H      0.478850000000     0.431020000000     0.680760000000     0.132888   
H124     H      0.459550000000     0.445560000000     0.578850000000     0.186276   
H125     H      0.305720000000     0.443540000000     0.683460000000     0.203734   
H126     H      0.096420000000     0.450480000000     0.813000000000     0.195042   
H127     H      0.451270000000     0.433700000000     0.516540000000     0.204711   
H128     H      0.162410000000     0.422890000000     0.886930000000     0.195212   
H129     H      0.471880000000     0.156490000000     0.868170000000     0.194632   
H130     H      0.393810000000     0.218590000000     0.734230000000     0.190495   
H131     H      0.285760000000     0.156570000000     0.831000000000     0.194667   
H132     H      0.363750000000     0.218600000000     0.964930000000     0.193809   
H133     H      0.440530000000     0.196230000000     0.665210000000     0.127177   
H134     H      0.352820000000     0.175050000000     0.637830000000     0.196957   
H135     H      0.229050000000     0.194270000000     0.768120000000     0.132875   
H136     H      0.209730000000     0.179590000000     0.869900000000     0.186397   
H137     H      0.316870000000     0.178730000000     0.534000000000     0.138253   
H138     H      0.404940000000     0.202140000000     0.559560000000     0.187228   
H139     H      0.028560000000     0.194650000000     0.931230000000     0.134337   
H140     H      0.047180000000     0.178390000000     0.830660000000     0.186842   
H141     H      0.201330000000     0.191610000000     0.932030000000     0.204684   
H142     H      0.421380000000     0.175700000000     0.566330000000     0.202968   
H143     H      0.056520000000     0.193070000000     0.772500000000     0.204476   
H144     H      0.337770000000     0.201810000000     0.634860000000     0.195932   
H145     H      0.336200000000     0.084540000000     0.697720000000     0.0305615  
H146     H      0.307820000000     0.086710000000     0.764220000000     0.0384508  
H147     H      0.203330000000     0.040540000000     0.712860000000     0.0330248  
H148     H      0.230390000000     0.038040000000     0.645480000000     0.0354703  
H149     H      0.277700000000     0.048330000000     0.757170000000     0.0419655  
H150     H      0.305680000000     0.044740000000     0.690830000000     0.0430909  
H151     H      0.270670000000     0.007870000000     0.729560000000     0.0958375  
H152     H      0.262340000000     0.076840000000     0.651280000000     0.0421667  
H153     H      0.233470000000     0.080370000000     0.717090000000     0.0447579  
H154     H      0.276510000000     0.117140000000     0.671390000000     0.0985688  
H155     H      0.171580000000     0.040640000000     0.947900000000     0.0303425  
H156     H      0.199870000000     0.038490000000     0.514490000000     0.0383986  
H157     H      0.304350000000     0.084690000000     0.963290000000     0.0330529  
H158     H      0.277360000000     0.087140000000     0.895860000000     0.035513   
H159     H      0.229980000000     0.076880000000     0.507500000000     0.0422838  
H160     H      0.202040000000     0.080450000000     0.941110000000     0.0434383  
H161     H      0.237040000000     0.117330000000     0.979960000000     0.0974098  
H162     H      0.245490000000     0.048360000000     0.901650000000     0.0418726  
H163     H      0.274270000000     0.044860000000     0.967520000000     0.0442973  
H164     H      0.231450000000     0.008080000000     0.921790000000     0.096921   
H165     H      0.300290000000     0.288160000000     0.768770000000     0.0383077  
H166     H      0.334260000000     0.289430000000     0.706170000000     0.0298866  
H167     H      0.237860000000     0.337470000000     0.637580000000     0.0353589  
H168     H      0.204810000000     0.335710000000     0.700880000000     0.0335705  
H169     H      0.308000000000     0.329500000000     0.692800000000     0.0436911  
H170     H      0.274440000000     0.327320000000     0.755490000000     0.0428061  
H171     H      0.276680000000     0.367680000000     0.718830000000     0.0985513  
H172     H      0.230930000000     0.295730000000     0.712320000000     0.0446254  
H173     H      0.265110000000     0.297880000000     0.650130000000     0.0418318  
H174     H      0.270230000000     0.257650000000     0.677340000000     0.0968001  
H175     H      0.479690000000     0.087090000000     0.802750000000     0.0355755  
H176     H      0.453220000000     0.084640000000     0.735010000000     0.0330641  
H177     H      0.058290000000     0.038470000000     0.685170000000     0.0386391  
H178     H      0.086000000000     0.040590000000     0.752110000000     0.0301851  
H179     H      0.483460000000     0.044790000000     0.731200000000     0.0445749  
H180     H      0.011710000000     0.048330000000     0.797420000000     0.0419159  
H181     H      0.026360000000     0.008030000000     0.777720000000     0.0976358  
H182     H      0.055380000000     0.080410000000     0.758400000000     0.0435426  
H183     H      0.027970000000     0.076810000000     0.691700000000     0.0424434  
H184     H      0.020280000000     0.117260000000     0.718620000000     0.0981495  
H185     H      0.052620000000     0.335700000000     0.998580000000     0.0337006  
H186     H      0.019460000000     0.337470000000     0.561790000000     0.0351248  
H187     H      0.423270000000     0.289440000000     0.992820000000     0.0299513  
H188     H      0.457370000000     0.288150000000     0.930340000000     0.0382327  
H189     H      0.492280000000     0.297870000000     0.549110000000     0.0417588  
H190     H      0.026600000000     0.295730000000     0.987030000000     0.0447249  
H191     H      0.487350000000     0.257640000000     0.521790000000     0.0970374  
H192     H      0.483090000000     0.327330000000     0.943770000000     0.0427149  
H193     H      0.449420000000     0.329500000000     0.506360000000     0.043537   
H194     H      0.480580000000     0.367690000000     0.980720000000     0.0974305  
H195     H      0.027270000000     0.038030000000     0.553350000000     0.0356523  
H196     H      0.053910000000     0.040550000000     0.985730000000     0.0329927  
H197     H      0.448960000000     0.086680000000     0.935470000000     0.038486   
H198     H      0.421050000000     0.084550000000     0.502280000000     0.0303591  
H199     H      0.023650000000     0.080370000000     0.981860000000     0.0449044  
H200     H      0.495210000000     0.076820000000     0.547940000000     0.042267   
H201     H      0.480550000000     0.117110000000     0.528240000000     0.0985243  
H202     H      0.451690000000     0.044730000000     0.508730000000     0.0432443  
H203     H      0.479260000000     0.048340000000     0.942130000000     0.0420098  
H204     H      0.486770000000     0.007890000000     0.969240000000     0.0967906  
H205     H      0.302720000000     0.289460000000     0.950800000000     0.0335957  
H206     H      0.269720000000     0.287740000000     0.887450000000     0.0352601  
H207     H      0.173410000000     0.335810000000     0.956020000000     0.029995   
H208     H      0.207300000000     0.337030000000     0.518690000000     0.038323   
H209     H      0.242580000000     0.327340000000     0.900090000000     0.0422033  
H210     H      0.276710000000     0.329440000000     0.962340000000     0.045137   
H211     H      0.237620000000     0.367560000000     0.927490000000     0.098489   
H212     H      0.233050000000     0.297860000000     0.505330000000     0.0424835  
H213     H      0.199550000000     0.295740000000     0.942580000000     0.0432718  
H214     H      0.230710000000     0.257530000000     0.968490000000     0.0968881  
H215     H      0.050470000000     0.337030000000     0.679950000000     0.03828    
H216     H      0.083890000000     0.335670000000     0.742980000000     0.0299746  
H217     H      0.486680000000     0.287760000000     0.810100000000     0.0355289  
H218     H      0.454260000000     0.289500000000     0.746300000000     0.033129   
H219     H      0.057390000000     0.295630000000     0.755840000000     0.0433385  
H220     H      0.024370000000     0.297890000000     0.692730000000     0.0422381  
H221     H      0.025810000000     0.257520000000     0.728560000000     0.0962492  
H222     H      0.480600000000     0.329510000000     0.735440000000     0.0448989  
H223     H      0.014240000000     0.327270000000     0.798070000000     0.0421191  
H224     H      0.019920000000     0.367510000000     0.771300000000     0.0976656  
N17      N      0.244210000000     0.012100000000     0.702670000000    -0.218322   
N18      N      0.295280000000     0.112970000000     0.706860000000    -0.217678   
N19      N      0.263430000000     0.113110000000     0.952960000000    -0.218367   
N20      N      0.212540000000     0.012230000000     0.957160000000    -0.217955   
N21      N      0.248150000000     0.363490000000     0.695390000000    -0.218133   
N22      N      0.290800000000     0.261770000000     0.711290000000    -0.218558   
N23      N      0.045170000000     0.012190000000     0.742280000000    -0.217659   
N24      N      0.494000000000     0.113040000000     0.745780000000    -0.218052   
N25      N      0.466780000000     0.261770000000     0.987850000000    -0.218418   
N26      N      0.009230000000     0.363490000000     0.503960000000    -0.218259   
N27      N      0.461900000000     0.112960000000     0.992670000000    -0.218014   
N28      N      0.013160000000     0.012110000000     0.996230000000    -0.218015   
N29      N      0.216940000000     0.363430000000     0.961330000000    -0.218094   
N30      N      0.259320000000     0.261710000000     0.945180000000    -0.218344   
N31      N      0.497530000000     0.261710000000     0.752500000000    -0.218559   
N32      N      0.040560000000     0.363390000000     0.737430000000    -0.218453   
O65      O      0.051080000000     0.400170000000     0.722550000000    -0.382209   
O66      O      0.087330000000     0.374790000000     0.668270000000    -0.377102   
O67      O      0.027310000000     0.475400000000     0.506430000000    -0.382379   
O68      O      0.072130000000     0.000850000000     0.549540000000    -0.375681   
O69      O      0.024050000000     0.400220000000     0.512420000000    -0.37804    
O70      O      0.071170000000     0.374760000000     0.551650000000    -0.376041   
O71      O      0.054770000000     0.475410000000     0.726340000000    -0.379921   
O72      O      0.088510000000     0.000770000000     0.669680000000    -0.375795   
O73      O      0.492440000000     0.438810000000     0.713020000000    -0.339855   
O74      O      0.091210000000     0.436780000000     0.793030000000    -0.527354   
O75      O      0.471530000000     0.439210000000     0.544920000000    -0.523371   
O76      O      0.043320000000     0.436330000000     0.929350000000    -0.348365   
O77      O      0.061560000000     0.416560000000     0.612830000000    -0.499059   
O78      O      0.061400000000     0.459010000000     0.612880000000    -0.633673   
O79      O      0.230100000000     0.475400000000     0.692440000000    -0.385131   
O80      O      0.185200000000     0.000860000000     0.649450000000    -0.37584    
O81      O      0.206440000000     0.400210000000     0.976370000000    -0.377198   
O82      O      0.170200000000     0.374820000000     0.530550000000    -0.376858   
O83      O      0.202830000000     0.475450000000     0.972900000000    -0.384505   
O84      O      0.168940000000     0.000810000000     0.529500000000    -0.376149   
O85      O      0.233330000000     0.400210000000     0.686850000000    -0.375096   
O86      O      0.186370000000     0.374780000000     0.647370000000    -0.375993   
O87      O      0.285880000000     0.438810000000     0.653750000000    -0.524967   
O88      O      0.214260000000     0.436480000000     0.769600000000    -0.347332   
O89      O      0.264730000000     0.438560000000     0.984310000000    -0.334449   
O90      O      0.165320000000     0.436930000000     0.906120000000    -0.527208   
O91      O      0.196030000000     0.459010000000     0.586100000000    -0.633865   
O92      O      0.195900000000     0.416580000000     0.586070000000    -0.497435   
O93      O      0.139520000000     0.459290000000     0.683070000000    -0.501094   
O94      O      0.117870000000     0.416310000000     0.515650000000    -0.632623   
O95      O      0.139600000000     0.416300000000     0.683270000000    -0.632959   
O96      O      0.117850000000     0.459330000000     0.515890000000    -0.50092    
O97      O      0.456310000000     0.224990000000     0.972880000000    -0.381485   
O98      O      0.420230000000     0.250370000000     0.918450000000    -0.377213   
O99      O      0.480010000000     0.149760000000     0.756220000000    -0.37595    
O100     O      0.435280000000     0.124320000000     0.799490000000    -0.37602    
O101     O      0.482960000000     0.224980000000     0.761410000000    -0.383439   
O102     O      0.436200000000     0.250410000000     0.801360000000    -0.376696   
O103     O      0.452370000000     0.149740000000     0.976700000000    -0.379897   
O104     O      0.418880000000     0.124380000000     0.919780000000    -0.376536   
O105     O      0.015150000000     0.186230000000     0.962600000000    -0.340919   
O106     O      0.416820000000     0.188670000000     0.543290000000    -0.527932   
O107     O      0.035800000000     0.186120000000     0.798240000000    -0.523852   
O108     O      0.467230000000     0.188320000000     0.680000000000    -0.34091    
O109     O      0.446050000000     0.208650000000     0.863030000000    -0.498806   
O110     O      0.446160000000     0.166120000000     0.863060000000    -0.633533   
O111     O      0.277490000000     0.149810000000     0.942660000000    -0.381316   
O112     O      0.322310000000     0.124340000000     0.899520000000    -0.376111   
O113     O      0.301330000000     0.224990000000     0.726260000000    -0.383793   
O114     O      0.337380000000     0.250380000000     0.780670000000    -0.377067   
O115     O      0.304980000000     0.149750000000     0.722650000000    -0.377911   
O116     O      0.338620000000     0.124390000000     0.779450000000    -0.37628    
O117     O      0.274120000000     0.224980000000     0.936650000000    -0.378929   
O118     O      0.321210000000     0.250410000000     0.897400000000    -0.376237   
O119     O      0.221630000000     0.186010000000     0.903790000000    -0.523211   
O120     O      0.293240000000     0.188830000000     0.519590000000    -0.349375   
O121     O      0.242630000000     0.186430000000     0.735930000000    -0.339918   
O122     O      0.341420000000     0.188240000000     0.655930000000    -0.52971    
O123     O      0.311510000000     0.166170000000     0.836090000000    -0.633971   
O124     O      0.311650000000     0.208630000000     0.836100000000    -0.498788   
O125     O      0.367980000000     0.165890000000     0.933130000000    -0.499966   
O126     O      0.389750000000     0.208840000000     0.765830000000    -0.633514   
O127     O      0.367920000000     0.208860000000     0.933300000000    -0.632999   
O128     O      0.389770000000     0.165900000000     0.765990000000    -0.497647   
Zr13     Zr     0.073180000000     0.437780000000     0.695010000000     1.37628    
Zr14     Zr     0.051870000000     0.437790000000     0.530310000000     1.37648    
Zr15     Zr     0.205560000000     0.437780000000     0.668650000000     1.37692    
Zr16     Zr     0.184210000000     0.437810000000     0.503900000000     1.37589    
Zr17     Zr     0.128760000000     0.395760000000     0.599450000000     1.38078    
Zr18     Zr     0.128690000000     0.479870000000     0.599500000000     1.37967    
Zr19     Zr     0.434340000000     0.187380000000     0.945140000000     1.3763     
Zr20     Zr     0.455830000000     0.187370000000     0.780590000000     1.37613    
Zr21     Zr     0.301950000000     0.187400000000     0.918640000000     1.37649    
Zr22     Zr     0.323360000000     0.187380000000     0.753960000000     1.37594    
Zr23     Zr     0.378830000000     0.229420000000     0.849550000000     1.38054    
Zr24     Zr     0.378830000000     0.145310000000     0.849540000000     1.38007    
C97      C      0.060460000000     0.880050000000     0.208270000000     0.404768   
C98      C      0.038650000000     0.995530000000     0.018120000000     0.402941   
C99      C      0.035910000000     0.880080000000     0.023370000000     0.406304   
C100     C      0.063650000000     0.995530000000     0.211630000000     0.402764   
C101     C      0.218720000000     0.995530000000     0.180800000000     0.403831   
C102     C      0.197070000000     0.880090000000     0.490570000000     0.404891   
C103     C      0.193920000000     0.995570000000     0.487650000000     0.402537   
C104     C      0.221520000000     0.880090000000     0.175830000000     0.405984   
C105     C      0.446980000000     0.745110000000     0.458570000000     0.404459   
C106     C      0.468650000000     0.629630000000     0.267890000000     0.404433   
C107     C      0.471140000000     0.745100000000     0.272490000000     0.405915   
C108     C      0.443550000000     0.629620000000     0.461910000000     0.404873   
C109     C      0.288850000000     0.629670000000     0.430990000000     0.404503   
C110     C      0.310620000000     0.745110000000     0.240560000000     0.40509    
C111     C      0.313810000000     0.629640000000     0.237450000000     0.404181   
C112     C      0.285980000000     0.745100000000     0.425710000000     0.40623    
C113     C      0.265490000000     0.574850000000     0.197280000000    -0.0807579  
C114     C      0.273920000000     0.550300000000     0.211230000000    -0.0811874  
C115     C      0.234960000000     0.535600000000     0.191180000000     0.00716904 
C116     C      0.304180000000     0.589440000000     0.218500000000     0.00695854 
C117     C      0.242270000000     0.550360000000     0.447630000000    -0.0805829  
C118     C      0.233790000000     0.574900000000     0.461570000000    -0.0813123  
C119     C      0.272750000000     0.589600000000     0.441550000000     0.00730887 
C120     C      0.203580000000     0.535750000000     0.468770000000     0.0067726  
C121     C      0.264810000000     0.800360000000     0.196150000000    -0.0807791  
C122     C      0.274290000000     0.824860000000     0.209460000000    -0.0815311  
C123     C      0.238490000000     0.840060000000     0.183570000000     0.00811199 
C124     C      0.300330000000     0.785240000000     0.222870000000     0.00721188 
C125     C      0.023800000000     0.574860000000     0.237580000000    -0.0814502  
C126     C      0.015290000000     0.550320000000     0.251460000000    -0.0805211  
C127     C      0.054190000000     0.535710000000     0.230830000000     0.00687497 
C128     C      0.484660000000     0.589550000000     0.257110000000     0.00764542 
C129     C      0.483180000000     0.824860000000     0.489790000000    -0.0815239  
C130     C      0.492680000000     0.800350000000     0.003100000000    -0.0811281  
C131     C      0.457250000000     0.785230000000     0.476230000000     0.00730469 
C132     C      0.018900000000     0.840060000000     0.015790000000     0.00789226 
C133     C      0.483310000000     0.550290000000     0.488040000000    -0.0812407  
C134     C      0.491770000000     0.574830000000     0.001970000000    -0.0809902  
C135     C      0.452920000000     0.589430000000     0.481150000000     0.00706401 
C136     C      0.022440000000     0.535600000000     0.007680000000     0.00703674 
C137     C      0.233270000000     0.800340000000     0.459310000000    -0.0812799  
C138     C      0.242830000000     0.824840000000     0.446090000000    -0.0810408  
C139     C      0.207330000000     0.839970000000     0.472810000000     0.00762468 
C140     C      0.269040000000     0.785130000000     0.433440000000     0.00785812 
C141     C      0.014320000000     0.824830000000     0.252050000000    -0.0810907  
C142     C      0.023820000000     0.800320000000     0.238760000000    -0.0812114  
C143     C      0.487770000000     0.785150000000     0.264120000000     0.00762975 
C144     C      0.050120000000     0.839920000000     0.225850000000     0.00752402 
H225     H      0.035630000000     0.968620000000     0.117960000000     0.194245   
H226     H      0.113740000000     0.906580000000     0.484000000000     0.195827   
H227     H      0.221760000000     0.968630000000     0.081090000000     0.192525   
H228     H      0.143740000000     0.906570000000     0.214910000000     0.195846   
H229     H      0.065250000000     0.947340000000     0.415130000000     0.137245   
H230     H      0.160150000000     0.950650000000     0.386240000000     0.194917   
H231     H      0.278030000000     0.946920000000     0.015830000000     0.124774   
H232     H      0.298280000000     0.934280000000     0.118240000000     0.190432   
H233     H      0.191390000000     0.947030000000     0.283850000000     0.13636    
H234     H      0.093810000000     0.922720000000     0.312200000000     0.195501   
H235     H      0.478850000000     0.931020000000     0.180750000000     0.132808   
H236     H      0.459550000000     0.945560000000     0.078850000000     0.186232   
H237     H      0.305720000000     0.943540000000     0.183460000000     0.203673   
H238     H      0.096420000000     0.950480000000     0.313000000000     0.194988   
H239     H      0.451280000000     0.933690000000     0.016540000000     0.204647   
H240     H      0.162410000000     0.922890000000     0.386930000000     0.195213   
H241     H      0.471880000000     0.656490000000     0.368170000000     0.194641   
H242     H      0.393810000000     0.718590000000     0.234220000000     0.190515   
H243     H      0.285760000000     0.656570000000     0.331000000000     0.194671   
H244     H      0.363750000000     0.718600000000     0.464930000000     0.19379    
H245     H      0.440530000000     0.696230000000     0.165210000000     0.12709    
H246     H      0.352820000000     0.675050000000     0.137830000000     0.196974   
H247     H      0.229050000000     0.694270000000     0.268120000000     0.132759   
H248     H      0.209730000000     0.679590000000     0.369900000000     0.186214   
H249     H      0.316880000000     0.678730000000     0.034000000000     0.138172   
H250     H      0.404940000000     0.702140000000     0.059560000000     0.187217   
H251     H      0.028560000000     0.694650000000     0.431230000000     0.134238   
H252     H      0.047180000000     0.678390000000     0.330650000000     0.186881   
H253     H      0.201330000000     0.691610000000     0.432030000000     0.204646   
H254     H      0.421380000000     0.675700000000     0.066330000000     0.202976   
H255     H      0.056520000000     0.693070000000     0.272500000000     0.20439    
H256     H      0.337770000000     0.701810000000     0.134860000000     0.195922   
H257     H      0.336200000000     0.584540000000     0.197720000000     0.0305659  
H258     H      0.307820000000     0.586710000000     0.264220000000     0.0384561  
H259     H      0.203330000000     0.540540000000     0.212850000000     0.0329535  
H260     H      0.230390000000     0.538040000000     0.145470000000     0.0353922  
H261     H      0.277700000000     0.548330000000     0.257170000000     0.0419473  
H262     H      0.305680000000     0.544740000000     0.190820000000     0.04305    
H263     H      0.270670000000     0.507870000000     0.229560000000     0.0957532  
H264     H      0.262340000000     0.576840000000     0.151280000000     0.0421611  
H265     H      0.233470000000     0.580370000000     0.217090000000     0.0447691  
H266     H      0.276510000000     0.617130000000     0.171390000000     0.0986099  
H267     H      0.171580000000     0.540640000000     0.447900000000     0.0303046  
H268     H      0.199870000000     0.538490000000     0.014480000000     0.0383126  
H269     H      0.304350000000     0.584690000000     0.463290000000     0.0330216  
H270     H      0.277370000000     0.587140000000     0.395860000000     0.0355062  
H271     H      0.229980000000     0.576880000000     0.007490000000     0.0422285  
H272     H      0.202040000000     0.580450000000     0.441110000000     0.0434466  
H273     H      0.237040000000     0.617330000000     0.479960000000     0.0973869  
H274     H      0.245490000000     0.548360000000     0.401640000000     0.0418025  
H275     H      0.274270000000     0.544850000000     0.467520000000     0.044185   
H276     H      0.231450000000     0.508070000000     0.421790000000     0.096773   
H277     H      0.300290000000     0.788150000000     0.268760000000     0.0383218  
H278     H      0.334260000000     0.789430000000     0.206170000000     0.0298788  
H279     H      0.237860000000     0.837470000000     0.137580000000     0.0353366  
H280     H      0.204810000000     0.835710000000     0.200880000000     0.0335498  
H281     H      0.308000000000     0.829500000000     0.192800000000     0.0436974  
H282     H      0.274440000000     0.827320000000     0.255490000000     0.0428176  
H283     H      0.276680000000     0.867680000000     0.218830000000     0.0984903  
H284     H      0.230930000000     0.795730000000     0.212320000000     0.0446257  
H285     H      0.265120000000     0.797880000000     0.150130000000     0.0418265  
H286     H      0.270240000000     0.757650000000     0.177350000000     0.096878   
H287     H      0.479690000000     0.587090000000     0.302750000000     0.0355511  
H288     H      0.453220000000     0.584640000000     0.235000000000     0.0330349  
H289     H      0.058290000000     0.538470000000     0.185170000000     0.0385893  
H290     H      0.086000000000     0.540590000000     0.252110000000     0.0301235  
H291     H      0.483460000000     0.544800000000     0.231200000000     0.044536   
H292     H      0.011710000000     0.548330000000     0.297420000000     0.0418759  
H293     H      0.026360000000     0.508030000000     0.277720000000     0.097518   
H294     H      0.055380000000     0.580410000000     0.258400000000     0.0435395  
H295     H      0.027970000000     0.576810000000     0.191700000000     0.0424355  
H296     H      0.020280000000     0.617260000000     0.218620000000     0.0981494  
H297     H      0.052620000000     0.835700000000     0.498580000000     0.0336006  
H298     H      0.019460000000     0.837470000000     0.061790000000     0.0351328  
H299     H      0.423270000000     0.789430000000     0.492820000000     0.0299635  
H300     H      0.457370000000     0.788150000000     0.430340000000     0.038253   
H301     H      0.492280000000     0.797870000000     0.049110000000     0.0417993  
H302     H      0.026600000000     0.795730000000     0.487030000000     0.0446292  
H303     H      0.487350000000     0.757640000000     0.021780000000     0.0970263  
H304     H      0.483090000000     0.827330000000     0.443770000000     0.0427723  
H305     H      0.449430000000     0.829500000000     0.006360000000     0.0434649  
H306     H      0.480580000000     0.867690000000     0.480720000000     0.0973117  
H307     H      0.027270000000     0.538040000000     0.053350000000     0.035633   
H308     H      0.053910000000     0.540550000000     0.485730000000     0.0328501  
H309     H      0.448960000000     0.586680000000     0.435470000000     0.0385025  
H310     H      0.421050000000     0.584550000000     0.002280000000     0.0302616  
H311     H      0.023650000000     0.580370000000     0.481860000000     0.0448091  
H312     H      0.495210000000     0.576820000000     0.047940000000     0.0423088  
H313     H      0.480550000000     0.617110000000     0.028240000000     0.0984808  
H314     H      0.451700000000     0.544730000000     0.008730000000     0.0431274  
H315     H      0.479260000000     0.548340000000     0.442120000000     0.0420181  
H316     H      0.486770000000     0.507890000000     0.469240000000     0.0966675  
H317     H      0.302720000000     0.789450000000     0.450800000000     0.0335551  
H318     H      0.269720000000     0.787730000000     0.387450000000     0.0352296  
H319     H      0.173410000000     0.835810000000     0.456020000000     0.0300211  
H320     H      0.207300000000     0.837030000000     0.018690000000     0.0382669  
H321     H      0.242590000000     0.827340000000     0.400090000000     0.0421908  
H322     H      0.276710000000     0.829440000000     0.462340000000     0.0451047  
H323     H      0.237620000000     0.867560000000     0.427490000000     0.0985113  
H324     H      0.233050000000     0.797860000000     0.005330000000     0.042422   
H325     H      0.199550000000     0.795730000000     0.442580000000     0.0432912  
H326     H      0.230710000000     0.757520000000     0.468490000000     0.0968553  
H327     H      0.050470000000     0.837030000000     0.179950000000     0.0382602  
H328     H      0.083890000000     0.835670000000     0.242980000000     0.0299567  
H329     H      0.486680000000     0.787760000000     0.310100000000     0.0355139  
H330     H      0.454260000000     0.789500000000     0.246300000000     0.0331127  
H331     H      0.057390000000     0.795630000000     0.255840000000     0.0433363  
H332     H      0.024370000000     0.797880000000     0.192730000000     0.04223    
H333     H      0.025810000000     0.757520000000     0.228560000000     0.0962507  
H334     H      0.480600000000     0.829510000000     0.235440000000     0.0449045  
H335     H      0.014240000000     0.827270000000     0.298070000000     0.0421271  
H336     H      0.019910000000     0.867510000000     0.271300000000     0.0975726  
N33      N      0.244220000000     0.512100000000     0.202670000000    -0.218689   
N34      N      0.295290000000     0.612980000000     0.206860000000    -0.217737   
N35      N      0.263430000000     0.613110000000     0.452950000000    -0.21844    
N36      N      0.212540000000     0.512230000000     0.457160000000    -0.218293   
N37      N      0.248150000000     0.863480000000     0.195390000000    -0.21801    
N38      N      0.290800000000     0.761770000000     0.211290000000    -0.218681   
N39      N      0.045170000000     0.512190000000     0.242280000000    -0.218005   
N40      N      0.494000000000     0.613040000000     0.245780000000    -0.218062   
N41      N      0.466780000000     0.761770000000     0.487850000000    -0.218409   
N42      N      0.009230000000     0.863480000000     0.003960000000    -0.218249   
N43      N      0.461900000000     0.612960000000     0.492670000000    -0.218019   
N44      N      0.013160000000     0.512110000000     0.496230000000    -0.218484   
N45      N      0.216940000000     0.863430000000     0.461320000000    -0.21806    
N46      N      0.259320000000     0.761710000000     0.445180000000    -0.218353   
N47      N      0.497530000000     0.761710000000     0.252500000000    -0.218563   
N48      N      0.040560000000     0.863380000000     0.237430000000    -0.218303   
O129     O      0.051080000000     0.900170000000     0.222550000000    -0.382142   
O130     O      0.087330000000     0.874790000000     0.168260000000    -0.377021   
O131     O      0.027310000000     0.975400000000     0.006430000000    -0.382229   
O132     O      0.072130000000     0.500850000000     0.049540000000    -0.376411   
O133     O      0.024050000000     0.900210000000     0.012420000000    -0.378157   
O134     O      0.071170000000     0.874760000000     0.051650000000    -0.376009   
O135     O      0.054770000000     0.975410000000     0.226340000000    -0.379796   
O136     O      0.088510000000     0.500770000000     0.169680000000    -0.376652   
O137     O      0.492440000000     0.938810000000     0.213020000000    -0.339853   
O138     O      0.091210000000     0.936780000000     0.293030000000    -0.52735    
O139     O      0.471530000000     0.939210000000     0.044920000000    -0.523367   
O140     O      0.043310000000     0.936330000000     0.429350000000    -0.348332   
O141     O      0.061560000000     0.916560000000     0.112830000000    -0.499034   
O142     O      0.061400000000     0.959010000000     0.112880000000    -0.633453   
O143     O      0.230100000000     0.975400000000     0.192430000000    -0.385036   
O144     O      0.185200000000     0.500870000000     0.149450000000    -0.37646    
O145     O      0.206440000000     0.900210000000     0.476370000000    -0.37717    
O146     O      0.170200000000     0.874820000000     0.030550000000    -0.37692    
O147     O      0.202830000000     0.975450000000     0.472900000000    -0.384357   
O148     O      0.168940000000     0.500810000000     0.029500000000    -0.376972   
O149     O      0.233330000000     0.900210000000     0.186860000000    -0.375015   
O150     O      0.186370000000     0.874780000000     0.147360000000    -0.375916   
O151     O      0.285880000000     0.938810000000     0.153750000000    -0.524966   
O152     O      0.214260000000     0.936480000000     0.269600000000    -0.347492   
O153     O      0.264730000000     0.938560000000     0.484310000000    -0.334452   
O154     O      0.165320000000     0.936930000000     0.406120000000    -0.527247   
O155     O      0.196030000000     0.959010000000     0.086100000000    -0.633778   
O156     O      0.195900000000     0.916580000000     0.086070000000    -0.497421   
O157     O      0.139520000000     0.959290000000     0.183080000000    -0.501022   
O158     O      0.117870000000     0.916310000000     0.015650000000    -0.632648   
O159     O      0.139600000000     0.916300000000     0.183270000000    -0.633052   
O160     O      0.117850000000     0.959330000000     0.015880000000    -0.500866   
O161     O      0.456320000000     0.724990000000     0.472880000000    -0.381567   
O162     O      0.420230000000     0.750370000000     0.418450000000    -0.377184   
O163     O      0.480010000000     0.649760000000     0.256220000000    -0.375948   
O164     O      0.435280000000     0.624320000000     0.299490000000    -0.376025   
O165     O      0.482960000000     0.724980000000     0.261400000000    -0.383416   
O166     O      0.436200000000     0.750410000000     0.301360000000    -0.376711   
O167     O      0.452380000000     0.649740000000     0.476700000000    -0.379777   
O168     O      0.418880000000     0.624390000000     0.419780000000    -0.376636   
O169     O      0.015160000000     0.686220000000     0.462600000000    -0.3408     
O170     O      0.416820000000     0.688670000000     0.043290000000    -0.527957   
O171     O      0.035790000000     0.686120000000     0.298240000000    -0.523838   
O172     O      0.467240000000     0.688320000000     0.179990000000    -0.340786   
O173     O      0.446060000000     0.708650000000     0.363040000000    -0.498804   
O174     O      0.446160000000     0.666120000000     0.363060000000    -0.633449   
O175     O      0.277490000000     0.649810000000     0.442660000000    -0.381193   
O176     O      0.322310000000     0.624340000000     0.399520000000    -0.376148   
O177     O      0.301330000000     0.725000000000     0.226260000000    -0.384038   
O178     O      0.337380000000     0.750380000000     0.280670000000    -0.377193   
O179     O      0.304980000000     0.649760000000     0.222650000000    -0.37767    
O180     O      0.338630000000     0.624390000000     0.279450000000    -0.376204   
O181     O      0.274120000000     0.724980000000     0.436650000000    -0.378907   
O182     O      0.321210000000     0.750410000000     0.397400000000    -0.376204   
O183     O      0.221640000000     0.686020000000     0.403790000000    -0.523054   
O184     O      0.293240000000     0.688830000000     0.019590000000    -0.34934    
O185     O      0.242630000000     0.686420000000     0.235930000000    -0.339748   
O186     O      0.341420000000     0.688240000000     0.155930000000    -0.529728   
O187     O      0.311510000000     0.666170000000     0.336090000000    -0.633897   
O188     O      0.311660000000     0.708630000000     0.336100000000    -0.498882   
O189     O      0.367990000000     0.665890000000     0.433120000000    -0.499964   
O190     O      0.389750000000     0.708840000000     0.265820000000    -0.633632   
O191     O      0.367920000000     0.708860000000     0.433300000000    -0.633021   
O192     O      0.389770000000     0.665900000000     0.265990000000    -0.497629   
Zr25     Zr     0.073180000000     0.937780000000     0.195010000000     1.37619    
Zr26     Zr     0.051870000000     0.937790000000     0.030310000000     1.37625    
Zr27     Zr     0.205560000000     0.937780000000     0.168650000000     1.37686    
Zr28     Zr     0.184210000000     0.937810000000     0.003900000000     1.37571    
Zr29     Zr     0.128760000000     0.895760000000     0.099450000000     1.38081    
Zr30     Zr     0.128690000000     0.979870000000     0.099500000000     1.37847    
Zr31     Zr     0.434340000000     0.687390000000     0.445140000000     1.3763     
Zr32     Zr     0.455830000000     0.687370000000     0.280590000000     1.37598    
Zr33     Zr     0.301950000000     0.687400000000     0.418640000000     1.37648    
Zr34     Zr     0.323370000000     0.687390000000     0.253960000000     1.37596    
Zr35     Zr     0.378830000000     0.729420000000     0.349540000000     1.38046    
Zr36     Zr     0.378830000000     0.645310000000     0.349540000000     1.38024    
C145     C      0.060460000000     0.880050000000     0.708270000000     0.404774   
C146     C      0.038650000000     0.995530000000     0.518120000000     0.403015   
C147     C      0.035910000000     0.880080000000     0.523370000000     0.406029   
C148     C      0.063650000000     0.995530000000     0.711640000000     0.402743   
C149     C      0.218720000000     0.995530000000     0.680800000000     0.403832   
C150     C      0.197070000000     0.880090000000     0.990570000000     0.405103   
C151     C      0.193920000000     0.995570000000     0.987650000000     0.402618   
C152     C      0.221520000000     0.880090000000     0.675830000000     0.405796   
C153     C      0.446980000000     0.745110000000     0.958570000000     0.40453    
C154     C      0.468650000000     0.629630000000     0.767890000000     0.404393   
C155     C      0.471140000000     0.745100000000     0.772490000000     0.405979   
C156     C      0.443550000000     0.629620000000     0.961910000000     0.404805   
C157     C      0.288850000000     0.629670000000     0.930990000000     0.404486   
C158     C      0.310620000000     0.745110000000     0.740560000000     0.404785   
C159     C      0.313810000000     0.629640000000     0.737450000000     0.404528   
C160     C      0.285980000000     0.745100000000     0.925710000000     0.406245   
C161     C      0.265490000000     0.574850000000     0.697280000000    -0.0807459  
C162     C      0.273920000000     0.550300000000     0.711230000000    -0.0812168  
C163     C      0.234960000000     0.535600000000     0.691190000000     0.00720014 
C164     C      0.304180000000     0.589440000000     0.718500000000     0.00695862 
C165     C      0.242270000000     0.550360000000     0.947630000000    -0.0806288  
C166     C      0.233790000000     0.574900000000     0.961570000000    -0.0812693  
C167     C      0.272740000000     0.589600000000     0.941550000000     0.00732572 
C168     C      0.203570000000     0.535750000000     0.968770000000     0.0068257  
C169     C      0.264810000000     0.800360000000     0.696150000000    -0.0807621  
C170     C      0.274290000000     0.824860000000     0.709460000000    -0.0815329  
C171     C      0.238490000000     0.840060000000     0.683570000000     0.00810794 
C172     C      0.300330000000     0.785240000000     0.722880000000     0.00718074 
C173     C      0.023800000000     0.574860000000     0.737580000000    -0.0814735  
C174     C      0.015290000000     0.550320000000     0.751470000000    -0.0805135  
C175     C      0.054200000000     0.535710000000     0.730830000000     0.0068341  
C176     C      0.484650000000     0.589550000000     0.757110000000     0.00759065 
C177     C      0.483180000000     0.824860000000     0.989790000000    -0.0812636  
C178     C      0.492680000000     0.800350000000     0.503100000000    -0.0808694  
C179     C      0.457240000000     0.785230000000     0.976230000000     0.00741275 
C180     C      0.018900000000     0.840060000000     0.515790000000     0.00808238 
C181     C      0.483310000000     0.550290000000     0.988040000000    -0.080963   
C182     C      0.491770000000     0.574830000000     0.501970000000    -0.0806976  
C183     C      0.452920000000     0.589430000000     0.981150000000     0.00726041 
C184     C      0.022440000000     0.535600000000     0.507680000000     0.00728453 
C185     C      0.233270000000     0.800340000000     0.959310000000    -0.0811794  
C186     C      0.242830000000     0.824840000000     0.946090000000    -0.0811     
C187     C      0.207330000000     0.839970000000     0.972810000000     0.00773859 
C188     C      0.269040000000     0.785130000000     0.933440000000     0.00783318 
C189     C      0.014320000000     0.824830000000     0.752050000000    -0.081098   
C190     C      0.023820000000     0.800320000000     0.738760000000    -0.0811999  
C191     C      0.487760000000     0.785150000000     0.764130000000     0.00756358 
C192     C      0.050120000000     0.839920000000     0.725850000000     0.00753321 
H337     H      0.035630000000     0.968620000000     0.617960000000     0.194245   
H338     H      0.113740000000     0.906580000000     0.984000000000     0.195876   
H339     H      0.221760000000     0.968630000000     0.581090000000     0.19262    
H340     H      0.143730000000     0.906570000000     0.714920000000     0.195751   
H341     H      0.065250000000     0.947340000000     0.915130000000     0.137256   
H342     H      0.160150000000     0.950650000000     0.886240000000     0.194912   
H343     H      0.278030000000     0.946920000000     0.515840000000     0.124743   
H344     H      0.298280000000     0.934280000000     0.618240000000     0.190438   
H345     H      0.191390000000     0.947030000000     0.783850000000     0.136348   
H346     H      0.093810000000     0.922720000000     0.812200000000     0.195275   
H347     H      0.478850000000     0.931020000000     0.680760000000     0.132882   
H348     H      0.459550000000     0.945560000000     0.578850000000     0.186227   
H349     H      0.305720000000     0.943540000000     0.683460000000     0.203676   
H350     H      0.096420000000     0.950480000000     0.813000000000     0.19521    
H351     H      0.451270000000     0.933700000000     0.516540000000     0.204673   
H352     H      0.162410000000     0.922890000000     0.886930000000     0.195212   
H353     H      0.471880000000     0.656490000000     0.868170000000     0.194623   
H354     H      0.393810000000     0.718590000000     0.734230000000     0.190509   
H355     H      0.285760000000     0.656570000000     0.831000000000     0.194667   
H356     H      0.363750000000     0.718600000000     0.964930000000     0.193817   
H357     H      0.440530000000     0.696230000000     0.665210000000     0.127073   
H358     H      0.352820000000     0.675050000000     0.637830000000     0.19697    
H359     H      0.229050000000     0.694270000000     0.768120000000     0.132767   
H360     H      0.209730000000     0.679590000000     0.869900000000     0.186299   
H361     H      0.316870000000     0.678730000000     0.534000000000     0.138251   
H362     H      0.404940000000     0.702140000000     0.559560000000     0.187441   
H363     H      0.028560000000     0.694650000000     0.931230000000     0.1342     
H364     H      0.047180000000     0.678400000000     0.830660000000     0.187022   
H365     H      0.201330000000     0.691610000000     0.932030000000     0.204772   
H366     H      0.421380000000     0.675700000000     0.566330000000     0.202768   
H367     H      0.056520000000     0.693070000000     0.772500000000     0.204527   
H368     H      0.337770000000     0.701810000000     0.634860000000     0.195921   
H369     H      0.336200000000     0.584540000000     0.697720000000     0.0305616  
H370     H      0.307820000000     0.586710000000     0.764220000000     0.0384585  
H371     H      0.203330000000     0.540540000000     0.712860000000     0.0329497  
H372     H      0.230390000000     0.538040000000     0.645480000000     0.0353926  
H373     H      0.277700000000     0.548330000000     0.757170000000     0.0419546  
H374     H      0.305680000000     0.544740000000     0.690830000000     0.0430625  
H375     H      0.270670000000     0.507870000000     0.729560000000     0.0957217  
H376     H      0.262340000000     0.576840000000     0.651280000000     0.0421644  
H377     H      0.233470000000     0.580370000000     0.717090000000     0.0447711  
H378     H      0.276510000000     0.617130000000     0.671390000000     0.0986567  
H379     H      0.171580000000     0.540640000000     0.947900000000     0.0303107  
H380     H      0.199870000000     0.538490000000     0.514490000000     0.038359   
H381     H      0.304350000000     0.584690000000     0.963290000000     0.0330351  
H382     H      0.277370000000     0.587140000000     0.895860000000     0.0354989  
H383     H      0.229970000000     0.576880000000     0.507500000000     0.042267   
H384     H      0.202040000000     0.580450000000     0.941110000000     0.0434443  
H385     H      0.237040000000     0.617330000000     0.979960000000     0.0974274  
H386     H      0.245490000000     0.548360000000     0.901650000000     0.0418274  
H387     H      0.274270000000     0.544850000000     0.967520000000     0.0442099  
H388     H      0.231450000000     0.508070000000     0.921790000000     0.0967546  
H389     H      0.300290000000     0.788150000000     0.768770000000     0.0383287  
H390     H      0.334260000000     0.789430000000     0.706170000000     0.0298942  
H391     H      0.237850000000     0.837470000000     0.637580000000     0.0353464  
H392     H      0.204810000000     0.835710000000     0.700880000000     0.033565   
H393     H      0.308000000000     0.829500000000     0.692800000000     0.0437028  
H394     H      0.274440000000     0.827320000000     0.755490000000     0.0428195  
H395     H      0.276680000000     0.867680000000     0.718830000000     0.0984859  
H396     H      0.230930000000     0.795730000000     0.712320000000     0.0446244  
H397     H      0.265110000000     0.797880000000     0.650130000000     0.0418303  
H398     H      0.270230000000     0.757650000000     0.677340000000     0.0968032  
H399     H      0.479690000000     0.587090000000     0.802750000000     0.03557    
H400     H      0.453220000000     0.584640000000     0.735010000000     0.0330527  
H401     H      0.058290000000     0.538470000000     0.685170000000     0.0386019  
H402     H      0.086000000000     0.540590000000     0.752110000000     0.030138   
H403     H      0.483460000000     0.544800000000     0.731200000000     0.0445433  
H404     H      0.011710000000     0.548330000000     0.797420000000     0.0418909  
H405     H      0.026360000000     0.508030000000     0.777720000000     0.0975198  
H406     H      0.055380000000     0.580410000000     0.758400000000     0.0435474  
H407     H      0.027970000000     0.576810000000     0.691700000000     0.0424449  
H408     H      0.020280000000     0.617260000000     0.718620000000     0.098156   
H409     H      0.052620000000     0.835700000000     0.998580000000     0.0336824  
H410     H      0.019460000000     0.837470000000     0.561790000000     0.0351     
H411     H      0.423270000000     0.789440000000     0.992820000000     0.0299535  
H412     H      0.457370000000     0.788150000000     0.930340000000     0.0382346  
H413     H      0.492280000000     0.797870000000     0.549110000000     0.041759   
H414     H      0.026600000000     0.795730000000     0.987030000000     0.0447257  
H415     H      0.487350000000     0.757640000000     0.521790000000     0.0970415  
H416     H      0.483090000000     0.827330000000     0.943770000000     0.0427268  
H417     H      0.449420000000     0.829500000000     0.506360000000     0.043548   
H418     H      0.480580000000     0.867690000000     0.980720000000     0.0973713  
H419     H      0.027270000000     0.538040000000     0.553350000000     0.0355872  
H420     H      0.053910000000     0.540550000000     0.985730000000     0.0329438  
H421     H      0.448960000000     0.586680000000     0.935470000000     0.0384791  
H422     H      0.421050000000     0.584550000000     0.502280000000     0.0303436  
H423     H      0.023650000000     0.580370000000     0.981860000000     0.0449056  
H424     H      0.495210000000     0.576820000000     0.547940000000     0.042263   
H425     H      0.480550000000     0.617120000000     0.528240000000     0.0985062  
H426     H      0.451700000000     0.544730000000     0.508730000000     0.0432249  
H427     H      0.479260000000     0.548340000000     0.942130000000     0.0419825  
H428     H      0.486770000000     0.507890000000     0.969240000000     0.096679   
H429     H      0.302720000000     0.789450000000     0.950800000000     0.0335718  
H430     H      0.269720000000     0.787730000000     0.887450000000     0.035235   
H431     H      0.173410000000     0.835810000000     0.956020000000     0.0300031  
H432     H      0.207300000000     0.837030000000     0.518690000000     0.0383267  
H433     H      0.242580000000     0.827340000000     0.900090000000     0.0422047  
H434     H      0.276710000000     0.829440000000     0.962340000000     0.0451355  
H435     H      0.237620000000     0.867560000000     0.927490000000     0.09849    
H436     H      0.233050000000     0.797860000000     0.505330000000     0.0424913  
H437     H      0.199550000000     0.795730000000     0.942580000000     0.0432767  
H438     H      0.230710000000     0.757520000000     0.968490000000     0.0968672  
H439     H      0.050470000000     0.837030000000     0.679950000000     0.0382605  
H440     H      0.083890000000     0.835670000000     0.742980000000     0.0299624  
H441     H      0.486680000000     0.787760000000     0.810100000000     0.0355328  
H442     H      0.454260000000     0.789500000000     0.746300000000     0.0331326  
H443     H      0.057390000000     0.795630000000     0.755840000000     0.0433363  
H444     H      0.024370000000     0.797880000000     0.692730000000     0.0422327  
H445     H      0.025810000000     0.757520000000     0.728560000000     0.0962537  
H446     H      0.480600000000     0.829510000000     0.735440000000     0.0449118  
H447     H      0.014240000000     0.827270000000     0.798070000000     0.0421313  
H448     H      0.019920000000     0.867510000000     0.771300000000     0.0976079  
N49      N      0.244210000000     0.512100000000     0.702670000000    -0.218685   
N50      N      0.295280000000     0.612980000000     0.706860000000    -0.217802   
N51      N      0.263430000000     0.613110000000     0.952960000000    -0.218444   
N52      N      0.212530000000     0.512230000000     0.957160000000    -0.218301   
N53      N      0.248150000000     0.863480000000     0.695390000000    -0.217964   
N54      N      0.290800000000     0.761770000000     0.711290000000    -0.218564   
N55      N      0.045170000000     0.512190000000     0.742280000000    -0.218001   
N56      N      0.494000000000     0.613040000000     0.745780000000    -0.218043   
N57      N      0.466780000000     0.761770000000     0.987850000000    -0.218426   
N58      N      0.009230000000     0.863480000000     0.503960000000    -0.218182   
N59      N      0.461900000000     0.612960000000     0.992670000000    -0.218005   
N60      N      0.013160000000     0.512110000000     0.996230000000    -0.218393   
N61      N      0.216940000000     0.863430000000     0.961330000000    -0.218092   
N62      N      0.259320000000     0.761710000000     0.945180000000    -0.218349   
N63      N      0.497530000000     0.761710000000     0.752500000000    -0.218565   
N64      N      0.040560000000     0.863380000000     0.737430000000    -0.218331   
O193     O      0.051080000000     0.900170000000     0.722550000000    -0.382151   
O194     O      0.087340000000     0.874790000000     0.668270000000    -0.377013   
O195     O      0.027310000000     0.975400000000     0.506430000000    -0.382238   
O196     O      0.072130000000     0.500850000000     0.549540000000    -0.376431   
O197     O      0.024050000000     0.900220000000     0.512420000000    -0.378014   
O198     O      0.071170000000     0.874760000000     0.551650000000    -0.375917   
O199     O      0.054770000000     0.975410000000     0.726340000000    -0.3798     
O200     O      0.088520000000     0.500770000000     0.669680000000    -0.376558   
O201     O      0.492440000000     0.938810000000     0.713020000000    -0.339911   
O202     O      0.091210000000     0.936790000000     0.793030000000    -0.527344   
O203     O      0.471530000000     0.939210000000     0.544920000000    -0.523374   
O204     O      0.043310000000     0.936330000000     0.929350000000    -0.348287   
O205     O      0.061560000000     0.916560000000     0.612830000000    -0.499043   
O206     O      0.061400000000     0.959010000000     0.612880000000    -0.633468   
O207     O      0.230100000000     0.975400000000     0.692440000000    -0.385106   
O208     O      0.185200000000     0.500870000000     0.649450000000    -0.376463   
O209     O      0.206440000000     0.900210000000     0.976370000000    -0.377203   
O210     O      0.170190000000     0.874820000000     0.530550000000    -0.376812   
O211     O      0.202830000000     0.975450000000     0.972900000000    -0.384358   
O212     O      0.168940000000     0.500810000000     0.529500000000    -0.376916   
O213     O      0.233330000000     0.900210000000     0.686850000000    -0.374881   
O214     O      0.186360000000     0.874770000000     0.647370000000    -0.375746   
O215     O      0.285880000000     0.938810000000     0.653750000000    -0.524975   
O216     O      0.214260000000     0.936480000000     0.769600000000    -0.347472   
O217     O      0.264730000000     0.938560000000     0.984310000000    -0.334489   
O218     O      0.165320000000     0.936930000000     0.906120000000    -0.527204   
O219     O      0.196020000000     0.959020000000     0.586100000000    -0.633897   
O220     O      0.195900000000     0.916580000000     0.586070000000    -0.497379   
O221     O      0.139520000000     0.959290000000     0.683070000000    -0.501128   
O222     O      0.117870000000     0.916310000000     0.515650000000    -0.632646   
O223     O      0.139600000000     0.916300000000     0.683270000000    -0.632891   
O224     O      0.117850000000     0.959330000000     0.515890000000    -0.500949   
O225     O      0.456310000000     0.724990000000     0.972880000000    -0.381611   
O226     O      0.420230000000     0.750370000000     0.918450000000    -0.377228   
O227     O      0.480010000000     0.649760000000     0.756220000000    -0.375835   
O228     O      0.435280000000     0.624320000000     0.799490000000    -0.376006   
O229     O      0.482960000000     0.724980000000     0.761410000000    -0.383545   
O230     O      0.436200000000     0.750410000000     0.801360000000    -0.376709   
O231     O      0.452370000000     0.649740000000     0.976700000000    -0.379775   
O232     O      0.418880000000     0.624380000000     0.919780000000    -0.376521   
O233     O      0.015150000000     0.686220000000     0.962600000000    -0.340797   
O234     O      0.416820000000     0.688680000000     0.543290000000    -0.527936   
O235     O      0.035800000000     0.686120000000     0.798240000000    -0.524043   
O236     O      0.467240000000     0.688320000000     0.680000000000    -0.340799   
O237     O      0.446050000000     0.708650000000     0.863030000000    -0.498928   
O238     O      0.446160000000     0.666120000000     0.863060000000    -0.633399   
O239     O      0.277490000000     0.649810000000     0.942660000000    -0.381168   
O240     O      0.322310000000     0.624340000000     0.899520000000    -0.376128   
O241     O      0.301330000000     0.724990000000     0.726260000000    -0.38391    
O242     O      0.337380000000     0.750380000000     0.780670000000    -0.377083   
O243     O      0.304980000000     0.649750000000     0.722650000000    -0.377825   
O244     O      0.338620000000     0.624390000000     0.779450000000    -0.376313   
O245     O      0.274120000000     0.724980000000     0.936650000000    -0.378909   
O246     O      0.321210000000     0.750410000000     0.897400000000    -0.376234   
O247     O      0.221630000000     0.686020000000     0.903790000000    -0.523198   
O248     O      0.293240000000     0.688830000000     0.519590000000    -0.349378   
O249     O      0.242630000000     0.686420000000     0.735930000000    -0.339799   
O250     O      0.341420000000     0.688240000000     0.655930000000    -0.529713   
O251     O      0.311510000000     0.666170000000     0.836090000000    -0.633905   
O252     O      0.311650000000     0.708630000000     0.836100000000    -0.498836   
O253     O      0.367980000000     0.665890000000     0.933130000000    -0.499898   
O254     O      0.389750000000     0.708840000000     0.765830000000    -0.633644   
O255     O      0.367920000000     0.708860000000     0.933300000000    -0.633061   
O256     O      0.389770000000     0.665900000000     0.765990000000    -0.497522   
Zr37     Zr     0.073180000000     0.937780000000     0.695010000000     1.37619    
Zr38     Zr     0.051870000000     0.937790000000     0.530310000000     1.3764     
Zr39     Zr     0.205560000000     0.937790000000     0.668650000000     1.37677    
Zr40     Zr     0.184200000000     0.937810000000     0.503900000000     1.37576    
Zr41     Zr     0.128760000000     0.895760000000     0.599450000000     1.38076    
Zr42     Zr     0.128690000000     0.979870000000     0.599500000000     1.3787     
Zr43     Zr     0.434340000000     0.687390000000     0.945140000000     1.37629    
Zr44     Zr     0.455830000000     0.687380000000     0.780590000000     1.3761     
Zr45     Zr     0.301950000000     0.687400000000     0.918640000000     1.37648    
Zr46     Zr     0.323360000000     0.687390000000     0.753960000000     1.37594    
Zr47     Zr     0.378830000000     0.729420000000     0.849550000000     1.38052    
Zr48     Zr     0.378830000000     0.645310000000     0.849540000000     1.38012    
C193     C      0.560450000000     0.380050000000     0.208270000000     0.404855   
C194     C      0.538650000000     0.495530000000     0.018120000000     0.404031   
C195     C      0.535920000000     0.380080000000     0.023370000000     0.406411   
C196     C      0.563650000000     0.495530000000     0.211630000000     0.403926   
C197     C      0.718720000000     0.495530000000     0.180800000000     0.404729   
C198     C      0.697070000000     0.380090000000     0.490570000000     0.404995   
C199     C      0.693930000000     0.495570000000     0.487650000000     0.403585   
C200     C      0.721520000000     0.380090000000     0.175830000000     0.406143   
C201     C      0.946980000000     0.245110000000     0.458570000000     0.404417   
C202     C      0.968650000000     0.129630000000     0.267890000000     0.404492   
C203     C      0.971140000000     0.245100000000     0.272490000000     0.406003   
C204     C      0.943550000000     0.129620000000     0.461910000000     0.404853   
C205     C      0.788860000000     0.129680000000     0.430990000000     0.404469   
C206     C      0.810620000000     0.245110000000     0.240560000000     0.404675   
C207     C      0.813810000000     0.129640000000     0.237450000000     0.404401   
C208     C      0.785980000000     0.245100000000     0.425710000000     0.406246   
C209     C      0.765490000000     0.074840000000     0.197280000000    -0.080724   
C210     C      0.773920000000     0.050300000000     0.211230000000    -0.0811463  
C211     C      0.734950000000     0.035600000000     0.191180000000     0.00709583 
C212     C      0.804180000000     0.089440000000     0.218500000000     0.00700645 
C213     C      0.742280000000     0.050360000000     0.447630000000    -0.0805649  
C214     C      0.733790000000     0.074900000000     0.461570000000    -0.0813411  
C215     C      0.772750000000     0.089600000000     0.441550000000     0.00738672 
C216     C      0.703580000000     0.035750000000     0.468770000000     0.00673204 
C217     C      0.764810000000     0.300360000000     0.196150000000    -0.0807837  
C218     C      0.774290000000     0.324860000000     0.209460000000    -0.0814982  
C219     C      0.738490000000     0.340060000000     0.183570000000     0.00800905 
C220     C      0.800330000000     0.285240000000     0.222870000000     0.00719683 
C221     C      0.523800000000     0.074860000000     0.237580000000    -0.0814683  
C222     C      0.515290000000     0.050320000000     0.251460000000    -0.0804963  
C223     C      0.554190000000     0.035710000000     0.230830000000     0.00684991 
C224     C      0.984650000000     0.089550000000     0.257110000000     0.00760725 
C225     C      0.983180000000     0.324860000000     0.489790000000    -0.0814914  
C226     C      0.992680000000     0.300350000000     0.003100000000    -0.0811685  
C227     C      0.957250000000     0.285230000000     0.476230000000     0.0073051  
C228     C      0.518910000000     0.340060000000     0.015790000000     0.00775696 
C229     C      0.983310000000     0.050290000000     0.488040000000    -0.0811975  
C230     C      0.991770000000     0.074830000000     0.001970000000    -0.081008   
C231     C      0.952920000000     0.089430000000     0.481150000000     0.007072   
C232     C      0.522430000000     0.035600000000     0.007680000000     0.00702269 
C233     C      0.733260000000     0.300340000000     0.459310000000    -0.0813094  
C234     C      0.742830000000     0.324840000000     0.446090000000    -0.0810411  
C235     C      0.707330000000     0.339970000000     0.472810000000     0.00762908 
C236     C      0.769040000000     0.285140000000     0.433440000000     0.00778067 
C237     C      0.514320000000     0.324820000000     0.252050000000    -0.080999   
C238     C      0.523820000000     0.300320000000     0.238760000000    -0.0812371  
C239     C      0.987760000000     0.285150000000     0.264120000000     0.00758616 
C240     C      0.550120000000     0.339920000000     0.225850000000     0.00740338 
H449     H      0.535630000000     0.468620000000     0.117960000000     0.194346   
H450     H      0.613740000000     0.406580000000     0.484000000000     0.195818   
H451     H      0.721760000000     0.468630000000     0.081090000000     0.192615   
H452     H      0.643740000000     0.406570000000     0.214910000000     0.195872   
H453     H      0.565250000000     0.447340000000     0.415130000000     0.137282   
H454     H      0.660140000000     0.450650000000     0.386240000000     0.194941   
H455     H      0.778040000000     0.446920000000     0.015830000000     0.124778   
H456     H      0.798270000000     0.434280000000     0.118240000000     0.190525   
H457     H      0.691390000000     0.447040000000     0.283850000000     0.136251   
H458     H      0.593820000000     0.422720000000     0.312200000000     0.195494   
H459     H      0.978850000000     0.431020000000     0.180750000000     0.132817   
H460     H      0.959560000000     0.445560000000     0.078850000000     0.186426   
H461     H      0.805720000000     0.443540000000     0.183460000000     0.203762   
H462     H      0.596420000000     0.450480000000     0.313000000000     0.195042   
H463     H      0.951280000000     0.433690000000     0.016540000000     0.204825   
H464     H      0.662410000000     0.422890000000     0.386930000000     0.195207   
H465     H      0.971880000000     0.156490000000     0.368170000000     0.194617   
H466     H      0.893810000000     0.218600000000     0.234220000000     0.190304   
H467     H      0.785760000000     0.156570000000     0.331000000000     0.194676   
H468     H      0.863760000000     0.218600000000     0.464930000000     0.193805   
H469     H      0.940530000000     0.196230000000     0.165210000000     0.127102   
H470     H      0.852820000000     0.175050000000     0.137830000000     0.196952   
H471     H      0.729050000000     0.194280000000     0.268120000000     0.132773   
H472     H      0.709730000000     0.179590000000     0.369900000000     0.1864     
H473     H      0.816870000000     0.178730000000     0.034000000000     0.138241   
H474     H      0.904940000000     0.202140000000     0.059560000000     0.187444   
H475     H      0.528550000000     0.194650000000     0.431230000000     0.134387   
H476     H      0.547170000000     0.178390000000     0.330650000000     0.187013   
H477     H      0.701330000000     0.191610000000     0.432030000000     0.204676   
H478     H      0.921380000000     0.175700000000     0.066330000000     0.202753   
H479     H      0.556520000000     0.193070000000     0.272500000000     0.20453    
H480     H      0.837770000000     0.201810000000     0.134860000000     0.195924   
H481     H      0.836200000000     0.084540000000     0.197720000000     0.0305589  
H482     H      0.807820000000     0.086710000000     0.264220000000     0.0384515  
H483     H      0.703330000000     0.040540000000     0.212850000000     0.0330067  
H484     H      0.730390000000     0.038040000000     0.145470000000     0.0354432  
H485     H      0.777690000000     0.048330000000     0.257170000000     0.0419732  
H486     H      0.805680000000     0.044740000000     0.190820000000     0.0430885  
H487     H      0.770670000000     0.007870000000     0.229560000000     0.095837   
H488     H      0.762340000000     0.076840000000     0.151280000000     0.0421588  
H489     H      0.733470000000     0.080370000000     0.217090000000     0.0447545  
H490     H      0.776510000000     0.117140000000     0.171390000000     0.0985629  
H491     H      0.671580000000     0.040640000000     0.447900000000     0.0303559  
H492     H      0.699870000000     0.038490000000     0.014480000000     0.0383312  
H493     H      0.804350000000     0.084690000000     0.463290000000     0.0330176  
H494     H      0.777370000000     0.087140000000     0.395860000000     0.0355006  
H495     H      0.729970000000     0.076880000000     0.007490000000     0.0422178  
H496     H      0.702040000000     0.080450000000     0.441110000000     0.0434561  
H497     H      0.737040000000     0.117330000000     0.479960000000     0.0973115  
H498     H      0.745500000000     0.048360000000     0.401640000000     0.0418239  
H499     H      0.774280000000     0.044850000000     0.467520000000     0.0442245  
H500     H      0.731440000000     0.008080000000     0.421790000000     0.0969449  
H501     H      0.800300000000     0.288150000000     0.268760000000     0.0383224  
H502     H      0.834260000000     0.289430000000     0.206170000000     0.029884   
H503     H      0.737860000000     0.337470000000     0.137580000000     0.0353587  
H504     H      0.704810000000     0.335710000000     0.200880000000     0.0335721  
H505     H      0.808000000000     0.329500000000     0.192800000000     0.0436875  
H506     H      0.774440000000     0.327320000000     0.255490000000     0.0428073  
H507     H      0.776690000000     0.367680000000     0.218830000000     0.0985053  
H508     H      0.730930000000     0.295730000000     0.212320000000     0.0446221  
H509     H      0.765110000000     0.297880000000     0.150130000000     0.0418238  
H510     H      0.770240000000     0.257650000000     0.177350000000     0.0968572  
H511     H      0.979690000000     0.087090000000     0.302750000000     0.0355723  
H512     H      0.953220000000     0.084640000000     0.235000000000     0.0330555  
H513     H      0.558290000000     0.038470000000     0.185170000000     0.0386229  
H514     H      0.586000000000     0.040590000000     0.252110000000     0.0301769  
H515     H      0.983460000000     0.044790000000     0.231200000000     0.0445637  
H516     H      0.511720000000     0.048330000000     0.297420000000     0.0419045  
H517     H      0.526360000000     0.008030000000     0.277720000000     0.0976079  
H518     H      0.555380000000     0.080410000000     0.258400000000     0.0435432  
H519     H      0.527970000000     0.076810000000     0.191700000000     0.0424433  
H520     H      0.520280000000     0.117260000000     0.218620000000     0.0981462  
H521     H      0.552620000000     0.335700000000     0.498580000000     0.0336192  
H522     H      0.519460000000     0.337470000000     0.061790000000     0.0351656  
H523     H      0.923270000000     0.289430000000     0.492820000000     0.0299616  
H524     H      0.957370000000     0.288150000000     0.430340000000     0.0382498  
H525     H      0.992280000000     0.297870000000     0.049110000000     0.0418052  
H526     H      0.526600000000     0.295730000000     0.487030000000     0.0446303  
H527     H      0.987350000000     0.257640000000     0.021780000000     0.0970244  
H528     H      0.983090000000     0.327330000000     0.443770000000     0.0427591  
H529     H      0.949420000000     0.329500000000     0.006360000000     0.0434335  
H530     H      0.980580000000     0.367690000000     0.480720000000     0.0973664  
H531     H      0.527260000000     0.038030000000     0.053350000000     0.0356839  
H532     H      0.553910000000     0.040550000000     0.485730000000     0.0328926  
H533     H      0.948960000000     0.086680000000     0.435470000000     0.0385194  
H534     H      0.921050000000     0.084550000000     0.002280000000     0.0302701  
H535     H      0.523650000000     0.080370000000     0.481860000000     0.0448095  
H536     H      0.995210000000     0.076820000000     0.047940000000     0.0423177  
H537     H      0.980550000000     0.117110000000     0.028240000000     0.0984567  
H538     H      0.951700000000     0.044730000000     0.008730000000     0.0431656  
H539     H      0.979260000000     0.048340000000     0.442120000000     0.0420398  
H540     H      0.986770000000     0.007890000000     0.469240000000     0.0967776  
H541     H      0.802720000000     0.289460000000     0.450800000000     0.0335666  
H542     H      0.769720000000     0.287740000000     0.387450000000     0.0352401  
H543     H      0.673410000000     0.335810000000     0.456020000000     0.0300123  
H544     H      0.707300000000     0.337030000000     0.018690000000     0.0382684  
H545     H      0.742590000000     0.327340000000     0.400090000000     0.0421867  
H546     H      0.776710000000     0.329440000000     0.462340000000     0.0451016  
H547     H      0.737620000000     0.367560000000     0.427490000000     0.0985138  
H548     H      0.733050000000     0.297860000000     0.005330000000     0.042427   
H549     H      0.699550000000     0.295740000000     0.442580000000     0.0433139  
H550     H      0.730710000000     0.257530000000     0.468490000000     0.0968763  
H551     H      0.550460000000     0.337030000000     0.179950000000     0.0382793  
H552     H      0.583900000000     0.335670000000     0.242980000000     0.0299818  
H553     H      0.986690000000     0.287760000000     0.310100000000     0.0355212  
H554     H      0.954260000000     0.289500000000     0.246300000000     0.0331252  
H555     H      0.557390000000     0.295630000000     0.255840000000     0.0433391  
H556     H      0.524370000000     0.297890000000     0.192730000000     0.0422347  
H557     H      0.525800000000     0.257520000000     0.228560000000     0.0962959  
H558     H      0.980600000000     0.329510000000     0.235440000000     0.0448707  
H559     H      0.514240000000     0.327270000000     0.298070000000     0.0420951  
H560     H      0.519920000000     0.367510000000     0.271300000000     0.0976594  
N65      N      0.744210000000     0.012100000000     0.202670000000    -0.218323   
N66      N      0.795280000000     0.112970000000     0.206860000000    -0.21768    
N67      N      0.763430000000     0.113100000000     0.452950000000    -0.218237   
N68      N      0.712540000000     0.012230000000     0.457160000000    -0.217982   
N69      N      0.748150000000     0.363490000000     0.195390000000    -0.218075   
N70      N      0.790800000000     0.261770000000     0.211290000000    -0.218606   
N71      N      0.545180000000     0.012190000000     0.242280000000    -0.217658   
N72      N      0.994000000000     0.113040000000     0.245780000000    -0.218065   
N73      N      0.966780000000     0.261770000000     0.487850000000    -0.218402   
N74      N      0.509230000000     0.363490000000     0.003960000000    -0.218302   
N75      N      0.961890000000     0.112960000000     0.492670000000    -0.218029   
N76      N      0.513160000000     0.012110000000     0.496230000000    -0.218111   
N77      N      0.716940000000     0.363430000000     0.461320000000    -0.21808    
N78      N      0.759320000000     0.261710000000     0.445180000000    -0.218358   
N79      N      0.997530000000     0.261710000000     0.252500000000    -0.218539   
N80      N      0.540560000000     0.363390000000     0.237430000000    -0.218448   
O257     O      0.551090000000     0.400170000000     0.222550000000    -0.382196   
O258     O      0.587340000000     0.374790000000     0.168260000000    -0.376956   
O259     O      0.527310000000     0.475400000000     0.006430000000    -0.382358   
O260     O      0.572130000000     0.000850000000     0.049540000000    -0.375655   
O261     O      0.524040000000     0.400210000000     0.012420000000    -0.378116   
O262     O      0.571170000000     0.374760000000     0.051650000000    -0.376075   
O263     O      0.554780000000     0.475410000000     0.226340000000    -0.37997    
O264     O      0.588510000000     0.000770000000     0.169680000000    -0.375843   
O265     O      0.992440000000     0.438810000000     0.213020000000    -0.339841   
O266     O      0.591210000000     0.436780000000     0.293030000000    -0.527344   
O267     O      0.971520000000     0.439210000000     0.044920000000    -0.523583   
O268     O      0.543310000000     0.436330000000     0.429350000000    -0.348304   
O269     O      0.561560000000     0.416560000000     0.112830000000    -0.499012   
O270     O      0.561400000000     0.459010000000     0.112880000000    -0.633516   
O271     O      0.730110000000     0.475400000000     0.192430000000    -0.385117   
O272     O      0.685200000000     0.000860000000     0.149450000000    -0.375823   
O273     O      0.706440000000     0.400210000000     0.476370000000    -0.377208   
O274     O      0.670200000000     0.374820000000     0.030550000000    -0.376941   
O275     O      0.702830000000     0.475450000000     0.472900000000    -0.384516   
O276     O      0.668940000000     0.000810000000     0.029500000000    -0.376165   
O277     O      0.733330000000     0.400210000000     0.186860000000    -0.375051   
O278     O      0.686370000000     0.374780000000     0.147360000000    -0.376002   
O279     O      0.785880000000     0.438810000000     0.153750000000    -0.525035   
O280     O      0.714260000000     0.436480000000     0.269600000000    -0.347328   
O281     O      0.764730000000     0.438560000000     0.484310000000    -0.334388   
O282     O      0.665320000000     0.436930000000     0.406120000000    -0.527219   
O283     O      0.696030000000     0.459010000000     0.086100000000    -0.633851   
O284     O      0.695900000000     0.416580000000     0.086070000000    -0.497475   
O285     O      0.639510000000     0.459290000000     0.183080000000    -0.501101   
O286     O      0.617870000000     0.416300000000     0.015650000000    -0.632877   
O287     O      0.639600000000     0.416300000000     0.183270000000    -0.633143   
O288     O      0.617850000000     0.459330000000     0.015880000000    -0.500942   
O289     O      0.956320000000     0.224990000000     0.472880000000    -0.381456   
O290     O      0.920230000000     0.250370000000     0.418450000000    -0.37717    
O291     O      0.980010000000     0.149760000000     0.256220000000    -0.375866   
O292     O      0.935290000000     0.124320000000     0.299490000000    -0.37602    
O293     O      0.982950000000     0.224980000000     0.261400000000    -0.383578   
O294     O      0.936200000000     0.250410000000     0.301360000000    -0.376738   
O295     O      0.952370000000     0.149740000000     0.476700000000    -0.379923   
O296     O      0.918880000000     0.124380000000     0.419780000000    -0.376516   
O297     O      0.515160000000     0.186230000000     0.462600000000    -0.340954   
O298     O      0.916820000000     0.188680000000     0.043290000000    -0.527957   
O299     O      0.535800000000     0.186120000000     0.298240000000    -0.524046   
O300     O      0.967240000000     0.188320000000     0.179990000000    -0.340783   
O301     O      0.946050000000     0.208650000000     0.363040000000    -0.498858   
O302     O      0.946160000000     0.166120000000     0.363060000000    -0.633399   
O303     O      0.777490000000     0.149810000000     0.442660000000    -0.381302   
O304     O      0.822310000000     0.124340000000     0.399520000000    -0.376188   
O305     O      0.801330000000     0.224990000000     0.226260000000    -0.38378    
O306     O      0.837390000000     0.250380000000     0.280670000000    -0.37706    
O307     O      0.804980000000     0.149750000000     0.222650000000    -0.377922   
O308     O      0.838620000000     0.124390000000     0.279450000000    -0.376319   
O309     O      0.774120000000     0.224980000000     0.436650000000    -0.378932   
O310     O      0.821210000000     0.250410000000     0.397400000000    -0.376215   
O311     O      0.721630000000     0.186010000000     0.403790000000    -0.523216   
O312     O      0.793240000000     0.188830000000     0.019590000000    -0.349414   
O313     O      0.742630000000     0.186430000000     0.235930000000    -0.339828   
O314     O      0.841420000000     0.188240000000     0.155930000000    -0.5297     
O315     O      0.811510000000     0.166170000000     0.336090000000    -0.634013   
O316     O      0.811660000000     0.208630000000     0.336100000000    -0.498843   
O317     O      0.867980000000     0.165890000000     0.433120000000    -0.500023   
O318     O      0.889750000000     0.208840000000     0.265820000000    -0.63336    
O319     O      0.867920000000     0.208860000000     0.433300000000    -0.632968   
O320     O      0.889770000000     0.165900000000     0.265990000000    -0.497576   
Zr49     Zr     0.573190000000     0.437780000000     0.195010000000     1.37637    
Zr50     Zr     0.551870000000     0.437790000000     0.030310000000     1.37628    
Zr51     Zr     0.705560000000     0.437780000000     0.168650000000     1.37684    
Zr52     Zr     0.684200000000     0.437810000000     0.003900000000     1.3757     
Zr53     Zr     0.628770000000     0.395760000000     0.099450000000     1.38091    
Zr54     Zr     0.628690000000     0.479870000000     0.099500000000     1.37954    
Zr55     Zr     0.934340000000     0.187380000000     0.445140000000     1.37629    
Zr56     Zr     0.955830000000     0.187380000000     0.280590000000     1.37599    
Zr57     Zr     0.801950000000     0.187400000000     0.418640000000     1.37648    
Zr58     Zr     0.823360000000     0.187380000000     0.253960000000     1.37593    
Zr59     Zr     0.878830000000     0.229420000000     0.349540000000     1.38052    
Zr60     Zr     0.878820000000     0.145310000000     0.349540000000     1.38011    
C241     C      0.560450000000     0.380050000000     0.708270000000     0.40504    
C242     C      0.538650000000     0.495530000000     0.518120000000     0.404104   
C243     C      0.535910000000     0.380080000000     0.523370000000     0.406109   
C244     C      0.563650000000     0.495530000000     0.711640000000     0.403859   
C245     C      0.718720000000     0.495530000000     0.680800000000     0.404694   
C246     C      0.697070000000     0.380090000000     0.990570000000     0.405067   
C247     C      0.693930000000     0.495570000000     0.987650000000     0.403692   
C248     C      0.721520000000     0.380090000000     0.675830000000     0.406254   
C249     C      0.946980000000     0.245110000000     0.958570000000     0.40448    
C250     C      0.968650000000     0.129630000000     0.767890000000     0.404414   
C251     C      0.971140000000     0.245100000000     0.772490000000     0.405981   
C252     C      0.943550000000     0.129620000000     0.961910000000     0.404905   
C253     C      0.788850000000     0.129680000000     0.930990000000     0.404567   
C254     C      0.810620000000     0.245110000000     0.740560000000     0.404754   
C255     C      0.813810000000     0.129640000000     0.737450000000     0.404399   
C256     C      0.785980000000     0.245100000000     0.925710000000     0.406267   
C257     C      0.765490000000     0.074840000000     0.697280000000    -0.0807376  
C258     C      0.773920000000     0.050300000000     0.711230000000    -0.0811103  
C259     C      0.734950000000     0.035610000000     0.691190000000     0.00698265 
C260     C      0.804180000000     0.089440000000     0.718500000000     0.00701181 
C261     C      0.742270000000     0.050360000000     0.947630000000    -0.0806824  
C262     C      0.733790000000     0.074900000000     0.961570000000    -0.0812253  
C263     C      0.772750000000     0.089600000000     0.941550000000     0.00726385 
C264     C      0.703580000000     0.035750000000     0.968770000000     0.00685947 
C265     C      0.764810000000     0.300360000000     0.696150000000    -0.0807962  
C266     C      0.774280000000     0.324860000000     0.709460000000    -0.0814647  
C267     C      0.738490000000     0.340060000000     0.683570000000     0.00802369 
C268     C      0.800330000000     0.285240000000     0.722880000000     0.0072092  
C269     C      0.523800000000     0.074860000000     0.737580000000    -0.0814384  
C270     C      0.515290000000     0.050320000000     0.751470000000    -0.0805273  
C271     C      0.554190000000     0.035710000000     0.730830000000     0.00686161 
C272     C      0.984650000000     0.089550000000     0.757110000000     0.00759198 
C273     C      0.983180000000     0.324860000000     0.989790000000    -0.0812072  
C274     C      0.992680000000     0.300350000000     0.503100000000    -0.0808829  
C275     C      0.957250000000     0.285230000000     0.976230000000     0.00745788 
C276     C      0.518900000000     0.340060000000     0.515790000000     0.00798546 
C277     C      0.983310000000     0.050290000000     0.988040000000    -0.0809219  
C278     C      0.991770000000     0.074830000000     0.501970000000    -0.0807227  
C279     C      0.952920000000     0.089430000000     0.981150000000     0.00727642 
C280     C      0.522430000000     0.035600000000     0.507680000000     0.00725711 
C281     C      0.733260000000     0.300340000000     0.959310000000    -0.0812136  
C282     C      0.742830000000     0.324840000000     0.946090000000    -0.0810874  
C283     C      0.707330000000     0.339970000000     0.972810000000     0.0077207  
C284     C      0.769040000000     0.285140000000     0.933440000000     0.00775819 
C285     C      0.514320000000     0.324830000000     0.752050000000    -0.0810709  
C286     C      0.523820000000     0.300320000000     0.738760000000    -0.0812222  
C287     C      0.987760000000     0.285150000000     0.764130000000     0.00756364 
C288     C      0.550120000000     0.339920000000     0.725850000000     0.00745108 
H561     H      0.535630000000     0.468620000000     0.617960000000     0.194351   
H562     H      0.613740000000     0.406580000000     0.984000000000     0.196103   
H563     H      0.721760000000     0.468630000000     0.581090000000     0.192619   
H564     H      0.643740000000     0.406570000000     0.714920000000     0.195754   
H565     H      0.565250000000     0.447340000000     0.915130000000     0.137291   
H566     H      0.660140000000     0.450650000000     0.886240000000     0.194943   
H567     H      0.778040000000     0.446920000000     0.515840000000     0.124764   
H568     H      0.798270000000     0.434280000000     0.618240000000     0.190532   
H569     H      0.691390000000     0.447040000000     0.783850000000     0.13625    
H570     H      0.593820000000     0.422720000000     0.812200000000     0.195495   
H571     H      0.978850000000     0.431020000000     0.680760000000     0.132894   
H572     H      0.959550000000     0.445560000000     0.578850000000     0.18636    
H573     H      0.805720000000     0.443540000000     0.683460000000     0.203764   
H574     H      0.596420000000     0.450480000000     0.813000000000     0.195039   
H575     H      0.951270000000     0.433700000000     0.516540000000     0.204826   
H576     H      0.662410000000     0.422890000000     0.886930000000     0.195198   
H577     H      0.971880000000     0.156490000000     0.868170000000     0.194634   
H578     H      0.893810000000     0.218590000000     0.734230000000     0.190497   
H579     H      0.785760000000     0.156570000000     0.831000000000     0.194678   
H580     H      0.863750000000     0.218600000000     0.964930000000     0.193813   
H581     H      0.940530000000     0.196230000000     0.665210000000     0.127173   
H582     H      0.852820000000     0.175050000000     0.637830000000     0.196898   
H583     H      0.729050000000     0.194270000000     0.768120000000     0.132878   
H584     H      0.709730000000     0.179590000000     0.869900000000     0.186312   
H585     H      0.816870000000     0.178730000000     0.534000000000     0.13826    
H586     H      0.904940000000     0.202140000000     0.559560000000     0.187222   
H587     H      0.528550000000     0.194650000000     0.931230000000     0.134389   
H588     H      0.547170000000     0.178390000000     0.830660000000     0.186816   
H589     H      0.701330000000     0.191610000000     0.932030000000     0.204568   
H590     H      0.921380000000     0.175700000000     0.566330000000     0.202968   
H591     H      0.556520000000     0.193070000000     0.772500000000     0.204387   
H592     H      0.837770000000     0.201810000000     0.634860000000     0.195932   
H593     H      0.836200000000     0.084540000000     0.697720000000     0.0305615  
H594     H      0.807820000000     0.086710000000     0.764220000000     0.0384501  
H595     H      0.703330000000     0.040540000000     0.712860000000     0.0330376  
H596     H      0.730390000000     0.038040000000     0.645480000000     0.035484   
H597     H      0.777690000000     0.048330000000     0.757170000000     0.0419659  
H598     H      0.805680000000     0.044740000000     0.690830000000     0.0430896  
H599     H      0.770670000000     0.007870000000     0.729560000000     0.0958389  
H600     H      0.762340000000     0.076840000000     0.651280000000     0.0421689  
H601     H      0.733470000000     0.080370000000     0.717090000000     0.0447595  
H602     H      0.776510000000     0.117140000000     0.671390000000     0.098571   
H603     H      0.671580000000     0.040640000000     0.947900000000     0.0303434  
H604     H      0.699870000000     0.038490000000     0.514490000000     0.0383972  
H605     H      0.804350000000     0.084690000000     0.963290000000     0.0330629  
H606     H      0.777360000000     0.087140000000     0.895860000000     0.0355244  
H607     H      0.729970000000     0.076880000000     0.507500000000     0.0422791  
H608     H      0.702040000000     0.080450000000     0.941110000000     0.0434354  
H609     H      0.737040000000     0.117330000000     0.979960000000     0.0974092  
H610     H      0.745500000000     0.048360000000     0.901650000000     0.0418609  
H611     H      0.774270000000     0.044860000000     0.967520000000     0.0442737  
H612     H      0.731440000000     0.008080000000     0.921790000000     0.0969273  
H613     H      0.800290000000     0.288160000000     0.768770000000     0.0383069  
H614     H      0.834260000000     0.289430000000     0.706170000000     0.0298859  
H615     H      0.737860000000     0.337470000000     0.637580000000     0.0353585  
H616     H      0.704810000000     0.335710000000     0.700880000000     0.0335719  
H617     H      0.808000000000     0.329500000000     0.692800000000     0.0436672  
H618     H      0.774440000000     0.327320000000     0.755490000000     0.0427954  
H619     H      0.776680000000     0.367680000000     0.718830000000     0.0985512  
H620     H      0.730930000000     0.295730000000     0.712320000000     0.0446293  
H621     H      0.765110000000     0.297880000000     0.650130000000     0.0418345  
H622     H      0.770230000000     0.257650000000     0.677340000000     0.0968015  
H623     H      0.979690000000     0.087090000000     0.802750000000     0.0355754  
H624     H      0.953220000000     0.084640000000     0.735010000000     0.0330633  
H625     H      0.558290000000     0.038470000000     0.685170000000     0.0386234  
H626     H      0.586000000000     0.040590000000     0.752110000000     0.0301735  
H627     H      0.983460000000     0.044790000000     0.731200000000     0.0445684  
H628     H      0.511720000000     0.048330000000     0.797420000000     0.0419273  
H629     H      0.526360000000     0.008030000000     0.777720000000     0.0976132  
H630     H      0.555380000000     0.080410000000     0.758400000000     0.0435394  
H631     H      0.527970000000     0.076810000000     0.691700000000     0.0424413  
H632     H      0.520280000000     0.117260000000     0.718620000000     0.0981512  
H633     H      0.552620000000     0.335700000000     0.998580000000     0.03371    
H634     H      0.519460000000     0.337470000000     0.561790000000     0.0351218  
H635     H      0.923270000000     0.289440000000     0.992820000000     0.0299402  
H636     H      0.957370000000     0.288150000000     0.930340000000     0.0382197  
H637     H      0.992280000000     0.297870000000     0.549110000000     0.0417588  
H638     H      0.526600000000     0.295730000000     0.987030000000     0.0447214  
H639     H      0.987350000000     0.257640000000     0.521790000000     0.0970361  
H640     H      0.983100000000     0.327330000000     0.943770000000     0.042709   
H641     H      0.949420000000     0.329500000000     0.506360000000     0.0435367  
H642     H      0.980580000000     0.367690000000     0.980720000000     0.0974268  
H643     H      0.527260000000     0.038030000000     0.553350000000     0.0356432  
H644     H      0.553910000000     0.040550000000     0.985730000000     0.0329834  
H645     H      0.948960000000     0.086680000000     0.935470000000     0.0384845  
H646     H      0.921050000000     0.084550000000     0.502280000000     0.0303595  
H647     H      0.523650000000     0.080370000000     0.981860000000     0.0449032  
H648     H      0.995200000000     0.076820000000     0.547940000000     0.0422707  
H649     H      0.980550000000     0.117110000000     0.528240000000     0.0984968  
H650     H      0.951700000000     0.044730000000     0.508730000000     0.0432623  
H651     H      0.979260000000     0.048340000000     0.942130000000     0.0420041  
H652     H      0.986770000000     0.007890000000     0.969240000000     0.0967891  
H653     H      0.802720000000     0.289460000000     0.950800000000     0.0335833  
H654     H      0.769720000000     0.287740000000     0.887450000000     0.0352469  
H655     H      0.673410000000     0.335810000000     0.956020000000     0.0299966  
H656     H      0.707300000000     0.337030000000     0.518690000000     0.0383237  
H657     H      0.742590000000     0.327340000000     0.900090000000     0.0421948  
H658     H      0.776710000000     0.329440000000     0.962340000000     0.04513    
H659     H      0.737620000000     0.367560000000     0.927490000000     0.0985151  
H660     H      0.733050000000     0.297860000000     0.505330000000     0.0424946  
H661     H      0.699550000000     0.295740000000     0.942580000000     0.0433017  
H662     H      0.730710000000     0.257530000000     0.968490000000     0.0968907  
H663     H      0.550460000000     0.337030000000     0.679950000000     0.0382745  
H664     H      0.583890000000     0.335670000000     0.742980000000     0.0299764  
H665     H      0.986680000000     0.287760000000     0.810100000000     0.0355291  
H666     H      0.954260000000     0.289500000000     0.746300000000     0.0331311  
H667     H      0.557390000000     0.295630000000     0.755840000000     0.0433397  
H668     H      0.524370000000     0.297890000000     0.692730000000     0.0422378  
H669     H      0.525800000000     0.257520000000     0.728560000000     0.0962971  
H670     H      0.980600000000     0.329510000000     0.735440000000     0.0449004  
H671     H      0.514240000000     0.327270000000     0.798070000000     0.0421211  
H672     H      0.519920000000     0.367510000000     0.771300000000     0.0976678  
N81      N      0.744210000000     0.012100000000     0.702670000000    -0.218299   
N82      N      0.795280000000     0.112970000000     0.706860000000    -0.21768    
N83      N      0.763430000000     0.113110000000     0.952960000000    -0.218361   
N84      N      0.712530000000     0.012230000000     0.957160000000    -0.218003   
N85      N      0.748150000000     0.363490000000     0.695390000000    -0.218136   
N86      N      0.790800000000     0.261770000000     0.711290000000    -0.218559   
N87      N      0.545180000000     0.012190000000     0.742280000000    -0.217669   
N88      N      0.994000000000     0.113040000000     0.745780000000    -0.21805    
N89      N      0.966780000000     0.261770000000     0.987850000000    -0.218424   
N90      N      0.509230000000     0.363490000000     0.503960000000    -0.218269   
N91      N      0.961890000000     0.112960000000     0.992670000000    -0.21802    
N92      N      0.513160000000     0.012110000000     0.996230000000    -0.218022   
N93      N      0.716950000000     0.363430000000     0.961330000000    -0.21809    
N94      N      0.759320000000     0.261710000000     0.945180000000    -0.218354   
N95      N      0.997530000000     0.261710000000     0.752500000000    -0.218531   
N96      N      0.540560000000     0.363390000000     0.737430000000    -0.218484   
O321     O      0.551090000000     0.400170000000     0.722550000000    -0.382244   
O322     O      0.587330000000     0.374790000000     0.668270000000    -0.377028   
O323     O      0.527310000000     0.475400000000     0.506430000000    -0.382371   
O324     O      0.572130000000     0.000850000000     0.549540000000    -0.375675   
O325     O      0.524040000000     0.400220000000     0.512420000000    -0.377986   
O326     O      0.571170000000     0.374760000000     0.551650000000    -0.375919   
O327     O      0.554770000000     0.475410000000     0.726340000000    -0.379941   
O328     O      0.588510000000     0.000770000000     0.669680000000    -0.375792   
O329     O      0.992440000000     0.438810000000     0.713020000000    -0.339908   
O330     O      0.591210000000     0.436780000000     0.793030000000    -0.527347   
O331     O      0.971520000000     0.439210000000     0.544920000000    -0.523519   
O332     O      0.543310000000     0.436330000000     0.929350000000    -0.348271   
O333     O      0.561560000000     0.416560000000     0.612830000000    -0.499013   
O334     O      0.561400000000     0.459010000000     0.612880000000    -0.633525   
O335     O      0.730110000000     0.475400000000     0.692440000000    -0.385086   
O336     O      0.685200000000     0.000860000000     0.649450000000    -0.375833   
O337     O      0.706440000000     0.400210000000     0.976370000000    -0.377183   
O338     O      0.670200000000     0.374820000000     0.530550000000    -0.376886   
O339     O      0.702830000000     0.475450000000     0.972900000000    -0.384496   
O340     O      0.668940000000     0.000810000000     0.529500000000    -0.376099   
O341     O      0.733330000000     0.400210000000     0.686850000000    -0.375096   
O342     O      0.686370000000     0.374780000000     0.647370000000    -0.376031   
O343     O      0.785880000000     0.438810000000     0.653750000000    -0.525038   
O344     O      0.714260000000     0.436480000000     0.769600000000    -0.347329   
O345     O      0.764730000000     0.438560000000     0.984310000000    -0.334362   
O346     O      0.665320000000     0.436930000000     0.906120000000    -0.527189   
O347     O      0.696030000000     0.459010000000     0.586100000000    -0.633858   
O348     O      0.695900000000     0.416580000000     0.586070000000    -0.497468   
O349     O      0.639510000000     0.459290000000     0.683070000000    -0.501157   
O350     O      0.617870000000     0.416310000000     0.515650000000    -0.632675   
O351     O      0.639600000000     0.416300000000     0.683270000000    -0.633017   
O352     O      0.617850000000     0.459330000000     0.515890000000    -0.500967   
O353     O      0.956310000000     0.224990000000     0.972880000000    -0.38148    
O354     O      0.920230000000     0.250370000000     0.918450000000    -0.377182   
O355     O      0.980010000000     0.149760000000     0.756220000000    -0.375945   
O356     O      0.935280000000     0.124320000000     0.799490000000    -0.375974   
O357     O      0.982950000000     0.224980000000     0.761410000000    -0.383482   
O358     O      0.936200000000     0.250410000000     0.801360000000    -0.376659   
O359     O      0.952380000000     0.149740000000     0.976700000000    -0.379884   
O360     O      0.918890000000     0.124380000000     0.919780000000    -0.376545   
O361     O      0.515160000000     0.186230000000     0.962600000000    -0.34094    
O362     O      0.916820000000     0.188670000000     0.543290000000    -0.527929   
O363     O      0.535790000000     0.186120000000     0.798240000000    -0.523783   
O364     O      0.967230000000     0.188320000000     0.680000000000    -0.340912   
O365     O      0.946060000000     0.208650000000     0.863030000000    -0.498707   
O366     O      0.946160000000     0.166120000000     0.863060000000    -0.633482   
O367     O      0.777490000000     0.149810000000     0.942660000000    -0.381328   
O368     O      0.822310000000     0.124340000000     0.899520000000    -0.376161   
O369     O      0.801330000000     0.224990000000     0.726260000000    -0.383793   
O370     O      0.837380000000     0.250380000000     0.780670000000    -0.377091   
O371     O      0.804980000000     0.149750000000     0.722650000000    -0.37791    
O372     O      0.838620000000     0.124390000000     0.779450000000    -0.37631    
O373     O      0.774120000000     0.224980000000     0.936650000000    -0.378926   
O374     O      0.821210000000     0.250410000000     0.897400000000    -0.376274   
O375     O      0.721640000000     0.186010000000     0.903790000000    -0.523062   
O376     O      0.793240000000     0.188830000000     0.519590000000    -0.349372   
O377     O      0.742630000000     0.186430000000     0.735930000000    -0.33991    
O378     O      0.841410000000     0.188240000000     0.655930000000    -0.529661   
O379     O      0.811510000000     0.166170000000     0.836090000000    -0.634024   
O380     O      0.811650000000     0.208630000000     0.836100000000    -0.498828   
O381     O      0.867990000000     0.165890000000     0.933130000000    -0.5        
O382     O      0.889750000000     0.208840000000     0.765830000000    -0.633506   
O383     O      0.867920000000     0.208860000000     0.933300000000    -0.633019   
O384     O      0.889770000000     0.165900000000     0.765990000000    -0.497641   
Zr61     Zr     0.573190000000     0.437780000000     0.695010000000     1.37636    
Zr62     Zr     0.551870000000     0.437790000000     0.530310000000     1.3765     
Zr63     Zr     0.705560000000     0.437780000000     0.668650000000     1.37685    
Zr64     Zr     0.684200000000     0.437810000000     0.503900000000     1.3759     
Zr65     Zr     0.628770000000     0.395760000000     0.599450000000     1.38076    
Zr66     Zr     0.628690000000     0.479870000000     0.599500000000     1.37964    
Zr67     Zr     0.934340000000     0.187380000000     0.945140000000     1.37637    
Zr68     Zr     0.955830000000     0.187370000000     0.780590000000     1.37611    
Zr69     Zr     0.801950000000     0.187400000000     0.918640000000     1.37648    
Zr70     Zr     0.823360000000     0.187380000000     0.753960000000     1.37594    
Zr71     Zr     0.878820000000     0.229420000000     0.849550000000     1.38048    
Zr72     Zr     0.878820000000     0.145310000000     0.849540000000     1.38006    
C289     C      0.560450000000     0.880050000000     0.208270000000     0.404698   
C290     C      0.538650000000     0.995530000000     0.018120000000     0.402944   
C291     C      0.535920000000     0.880080000000     0.023370000000     0.406257   
C292     C      0.563650000000     0.995530000000     0.211630000000     0.402838   
C293     C      0.718720000000     0.995530000000     0.180800000000     0.403773   
C294     C      0.697070000000     0.880090000000     0.490570000000     0.404959   
C295     C      0.693930000000     0.995570000000     0.487650000000     0.402511   
C296     C      0.721520000000     0.880090000000     0.175830000000     0.405994   
C297     C      0.946980000000     0.745110000000     0.458570000000     0.404501   
C298     C      0.968650000000     0.629630000000     0.267890000000     0.404416   
C299     C      0.971150000000     0.745100000000     0.272490000000     0.405924   
C300     C      0.943550000000     0.629620000000     0.461910000000     0.404949   
C301     C      0.788860000000     0.629670000000     0.430990000000     0.404547   
C302     C      0.810620000000     0.745110000000     0.240560000000     0.405108   
C303     C      0.813810000000     0.629640000000     0.237450000000     0.404252   
C304     C      0.785980000000     0.745100000000     0.425710000000     0.406242   
C305     C      0.765490000000     0.574850000000     0.197280000000    -0.080755   
C306     C      0.773920000000     0.550300000000     0.211230000000    -0.0811816  
C307     C      0.734950000000     0.535600000000     0.191180000000     0.00713907 
C308     C      0.804180000000     0.589440000000     0.218500000000     0.00695198 
C309     C      0.742280000000     0.550360000000     0.447630000000    -0.0806231  
C310     C      0.733790000000     0.574900000000     0.461570000000    -0.0812961  
C311     C      0.772750000000     0.589600000000     0.441550000000     0.00729708 
C312     C      0.703580000000     0.535750000000     0.468770000000     0.00678638 
C313     C      0.764810000000     0.800360000000     0.196150000000    -0.0807887  
C314     C      0.774280000000     0.824860000000     0.209460000000    -0.0814928  
C315     C      0.738490000000     0.840060000000     0.183570000000     0.00811226 
C316     C      0.800330000000     0.785240000000     0.222870000000     0.00721735 
C317     C      0.523800000000     0.574860000000     0.237580000000    -0.0814659  
C318     C      0.515290000000     0.550320000000     0.251460000000    -0.08053    
C319     C      0.554190000000     0.535710000000     0.230830000000     0.00689685 
C320     C      0.984650000000     0.589550000000     0.257110000000     0.00760085 
C321     C      0.983180000000     0.824860000000     0.489790000000    -0.0815279  
C322     C      0.992680000000     0.800350000000     0.003100000000    -0.0811554  
C323     C      0.957250000000     0.785230000000     0.476230000000     0.00730591 
C324     C      0.518910000000     0.840060000000     0.015790000000     0.00785182 
C325     C      0.983310000000     0.550290000000     0.488040000000    -0.081219   
C326     C      0.991770000000     0.574830000000     0.001970000000    -0.0810127  
C327     C      0.952920000000     0.589430000000     0.481150000000     0.00707007 
C328     C      0.522430000000     0.535600000000     0.007680000000     0.00708408 
C329     C      0.733260000000     0.800340000000     0.459310000000    -0.0813219  
C330     C      0.742830000000     0.824840000000     0.446090000000    -0.081022   
C331     C      0.707330000000     0.839970000000     0.472810000000     0.00761176 
C332     C      0.769040000000     0.785130000000     0.433440000000     0.00786121 
C333     C      0.514320000000     0.824830000000     0.252050000000    -0.0810874  
C334     C      0.523820000000     0.800320000000     0.238760000000    -0.0812302  
C335     C      0.987760000000     0.785150000000     0.264120000000     0.00758802 
C336     C      0.550120000000     0.839920000000     0.225850000000     0.0075321  
H673     H      0.535630000000     0.968620000000     0.117960000000     0.194251   
H674     H      0.613740000000     0.906580000000     0.484000000000     0.195816   
H675     H      0.721760000000     0.968630000000     0.081090000000     0.192523   
H676     H      0.643740000000     0.906570000000     0.214910000000     0.195869   
H677     H      0.565250000000     0.947340000000     0.415130000000     0.137244   
H678     H      0.660140000000     0.950650000000     0.386240000000     0.194883   
H679     H      0.778040000000     0.946920000000     0.015830000000     0.124741   
H680     H      0.798270000000     0.934280000000     0.118240000000     0.190496   
H681     H      0.691390000000     0.947030000000     0.283850000000     0.136354   
H682     H      0.593820000000     0.922720000000     0.312200000000     0.195487   
H683     H      0.978850000000     0.931020000000     0.180750000000     0.132813   
H684     H      0.959550000000     0.945560000000     0.078850000000     0.186274   
H685     H      0.805720000000     0.943540000000     0.183460000000     0.203704   
H686     H      0.596420000000     0.950480000000     0.313000000000     0.194987   
H687     H      0.951270000000     0.933690000000     0.016540000000     0.204651   
H688     H      0.662410000000     0.922890000000     0.386930000000     0.195197   
H689     H      0.971880000000     0.656490000000     0.368170000000     0.194786   
H690     H      0.893810000000     0.718590000000     0.234220000000     0.190513   
H691     H      0.785760000000     0.656570000000     0.331000000000     0.19468    
H692     H      0.863760000000     0.718600000000     0.464930000000     0.193796   
H693     H      0.940530000000     0.696230000000     0.165210000000     0.127194   
H694     H      0.852820000000     0.675050000000     0.137830000000     0.196968   
H695     H      0.729050000000     0.694270000000     0.268120000000     0.132764   
H696     H      0.709730000000     0.679590000000     0.369900000000     0.186213   
H697     H      0.816870000000     0.678730000000     0.034000000000     0.138254   
H698     H      0.904940000000     0.702140000000     0.059560000000     0.187211   
H699     H      0.528550000000     0.694650000000     0.431230000000     0.134269   
H700     H      0.547180000000     0.678390000000     0.330650000000     0.186965   
H701     H      0.701330000000     0.691610000000     0.432030000000     0.204647   
H702     H      0.921380000000     0.675700000000     0.066330000000     0.202978   
H703     H      0.556520000000     0.693070000000     0.272500000000     0.204516   
H704     H      0.837770000000     0.701810000000     0.134860000000     0.195916   
H705     H      0.836200000000     0.584540000000     0.197720000000     0.0305617  
H706     H      0.807820000000     0.586710000000     0.264220000000     0.0384618  
H707     H      0.703330000000     0.540540000000     0.212850000000     0.0329669  
H708     H      0.730390000000     0.538040000000     0.145470000000     0.0354023  
H709     H      0.777690000000     0.548330000000     0.257170000000     0.041951   
H710     H      0.805680000000     0.544740000000     0.190820000000     0.0430497  
H711     H      0.770670000000     0.507870000000     0.229560000000     0.0957202  
H712     H      0.762340000000     0.576840000000     0.151280000000     0.0421606  
H713     H      0.733470000000     0.580370000000     0.217090000000     0.0447715  
H714     H      0.776510000000     0.617130000000     0.171390000000     0.0986359  
H715     H      0.671580000000     0.540640000000     0.447900000000     0.0303043  
H716     H      0.699870000000     0.538490000000     0.014480000000     0.0382979  
H717     H      0.804350000000     0.584690000000     0.463290000000     0.0330216  
H718     H      0.777370000000     0.587140000000     0.395860000000     0.0355125  
H719     H      0.729970000000     0.576880000000     0.007490000000     0.0422212  
H720     H      0.702040000000     0.580450000000     0.441110000000     0.0434442  
H721     H      0.737040000000     0.617330000000     0.479960000000     0.0973865  
H722     H      0.745500000000     0.548360000000     0.401640000000     0.0418122  
H723     H      0.774270000000     0.544850000000     0.467520000000     0.044207   
H724     H      0.731440000000     0.508070000000     0.421790000000     0.0968051  
H725     H      0.800300000000     0.788150000000     0.268760000000     0.0383201  
H726     H      0.834260000000     0.789430000000     0.206170000000     0.0298774  
H727     H      0.737860000000     0.837470000000     0.137580000000     0.035336   
H728     H      0.704810000000     0.835710000000     0.200880000000     0.0335522  
H729     H      0.808000000000     0.829500000000     0.192800000000     0.0436739  
H730     H      0.774440000000     0.827320000000     0.255490000000     0.0428072  
H731     H      0.776680000000     0.867680000000     0.218830000000     0.09849    
H732     H      0.730930000000     0.795730000000     0.212320000000     0.0446278  
H733     H      0.765110000000     0.797880000000     0.150130000000     0.041827   
H734     H      0.770240000000     0.757650000000     0.177350000000     0.0968785  
H735     H      0.979690000000     0.587090000000     0.302750000000     0.035564   
H736     H      0.953220000000     0.584640000000     0.235000000000     0.0330454  
H737     H      0.558290000000     0.538470000000     0.185170000000     0.0385824  
H738     H      0.586000000000     0.540590000000     0.252110000000     0.0301257  
H739     H      0.983460000000     0.544800000000     0.231200000000     0.0445364  
H740     H      0.511720000000     0.548330000000     0.297420000000     0.0418821  
H741     H      0.526360000000     0.508030000000     0.277720000000     0.0974946  
H742     H      0.555380000000     0.580410000000     0.258400000000     0.0435422  
H743     H      0.527970000000     0.576810000000     0.191700000000     0.042439   
H744     H      0.520280000000     0.617260000000     0.218620000000     0.0981513  
H745     H      0.552620000000     0.835700000000     0.498580000000     0.0336005  
H746     H      0.519460000000     0.837470000000     0.061790000000     0.0351459  
H747     H      0.923270000000     0.789430000000     0.492820000000     0.0299633  
H748     H      0.957370000000     0.788150000000     0.430340000000     0.0382504  
H749     H      0.992280000000     0.797870000000     0.049110000000     0.0418046  
H750     H      0.526600000000     0.795730000000     0.487030000000     0.0446315  
H751     H      0.987350000000     0.757640000000     0.021780000000     0.0970273  
H752     H      0.983100000000     0.827330000000     0.443770000000     0.0427738  
H753     H      0.949420000000     0.829500000000     0.006360000000     0.0434428  
H754     H      0.980580000000     0.867690000000     0.480720000000     0.0973074  
H755     H      0.527270000000     0.538040000000     0.053350000000     0.0356193  
H756     H      0.553910000000     0.540550000000     0.485730000000     0.0328389  
H757     H      0.948960000000     0.586680000000     0.435470000000     0.0385032  
H758     H      0.921050000000     0.584550000000     0.002280000000     0.0302608  
H759     H      0.523650000000     0.580370000000     0.481860000000     0.044808   
H760     H      0.995200000000     0.576820000000     0.047940000000     0.0423162  
H761     H      0.980550000000     0.617110000000     0.028240000000     0.098455   
H762     H      0.951700000000     0.544730000000     0.008730000000     0.0431214  
H763     H      0.979260000000     0.548340000000     0.442120000000     0.042013   
H764     H      0.986770000000     0.507890000000     0.469240000000     0.0966655  
H765     H      0.802720000000     0.789450000000     0.450800000000     0.0335541  
H766     H      0.769720000000     0.787730000000     0.387450000000     0.0352291  
H767     H      0.673410000000     0.835810000000     0.456020000000     0.0300184  
H768     H      0.707300000000     0.837030000000     0.018690000000     0.0382675  
H769     H      0.742590000000     0.827340000000     0.400090000000     0.0421863  
H770     H      0.776710000000     0.829440000000     0.462340000000     0.045102   
H771     H      0.737620000000     0.867560000000     0.427490000000     0.0985395  
H772     H      0.733050000000     0.797860000000     0.005330000000     0.0424329  
H773     H      0.699550000000     0.795730000000     0.442580000000     0.0433162  
H774     H      0.730710000000     0.757520000000     0.468490000000     0.0968564  
H775     H      0.550460000000     0.837030000000     0.179950000000     0.0382542  
H776     H      0.583890000000     0.835670000000     0.242980000000     0.0299597  
H777     H      0.986690000000     0.787760000000     0.310100000000     0.0355213  
H778     H      0.954260000000     0.789500000000     0.246300000000     0.0331264  
H779     H      0.557390000000     0.795630000000     0.255840000000     0.0433412  
H780     H      0.524370000000     0.797880000000     0.192730000000     0.0422321  
H781     H      0.525800000000     0.757520000000     0.228560000000     0.0962965  
H782     H      0.980600000000     0.829510000000     0.235440000000     0.0449068  
H783     H      0.514240000000     0.827270000000     0.298070000000     0.0421273  
H784     H      0.519920000000     0.867510000000     0.271300000000     0.097604   
N97      N      0.744210000000     0.512100000000     0.202670000000    -0.218668   
N98      N      0.795280000000     0.612980000000     0.206860000000    -0.217753   
N99      N      0.763430000000     0.613110000000     0.452950000000    -0.218415   
N100     N      0.712540000000     0.512230000000     0.457160000000    -0.218337   
N101     N      0.748150000000     0.863480000000     0.195390000000    -0.218011   
N102     N      0.790800000000     0.761770000000     0.211290000000    -0.218685   
N103     N      0.545180000000     0.512190000000     0.242280000000    -0.218036   
N104     N      0.994000000000     0.613040000000     0.245780000000    -0.218051   
N105     N      0.966780000000     0.761770000000     0.487850000000    -0.21842    
N106     N      0.509230000000     0.863480000000     0.003960000000    -0.218197   
N107     N      0.961900000000     0.612960000000     0.492670000000    -0.218034   
N108     N      0.513160000000     0.512110000000     0.496230000000    -0.218491   
N109     N      0.716950000000     0.863430000000     0.461320000000    -0.218074   
N110     N      0.759320000000     0.761710000000     0.445180000000    -0.218356   
N111     N      0.997530000000     0.761710000000     0.252500000000    -0.218556   
N112     N      0.540560000000     0.863380000000     0.237430000000    -0.218347   
O385     O      0.551090000000     0.900170000000     0.222550000000    -0.382156   
O386     O      0.587340000000     0.874790000000     0.168260000000    -0.376903   
O387     O      0.527310000000     0.975400000000     0.006430000000    -0.382224   
O388     O      0.572130000000     0.500850000000     0.049540000000    -0.376407   
O389     O      0.524040000000     0.900210000000     0.012420000000    -0.37809    
O390     O      0.571170000000     0.874760000000     0.051650000000    -0.376034   
O391     O      0.554780000000     0.975410000000     0.226340000000    -0.379826   
O392     O      0.588510000000     0.500770000000     0.169680000000    -0.376604   
O393     O      0.992440000000     0.938810000000     0.213020000000    -0.339896   
O394     O      0.591210000000     0.936780000000     0.293030000000    -0.527345   
O395     O      0.971520000000     0.939210000000     0.044920000000    -0.523378   
O396     O      0.543310000000     0.936330000000     0.429350000000    -0.348326   
O397     O      0.561560000000     0.916560000000     0.112830000000    -0.498991   
O398     O      0.561400000000     0.959010000000     0.112880000000    -0.633445   
O399     O      0.730110000000     0.975400000000     0.192430000000    -0.384991   
O400     O      0.685200000000     0.500870000000     0.149450000000    -0.37646    
O401     O      0.706440000000     0.900210000000     0.476370000000    -0.37719    
O402     O      0.670200000000     0.874820000000     0.030550000000    -0.376949   
O403     O      0.702830000000     0.975450000000     0.472900000000    -0.384364   
O404     O      0.668940000000     0.500810000000     0.029500000000    -0.376919   
O405     O      0.733330000000     0.900210000000     0.186860000000    -0.375016   
O406     O      0.686370000000     0.874780000000     0.147360000000    -0.375951   
O407     O      0.785880000000     0.938810000000     0.153750000000    -0.525038   
O408     O      0.714260000000     0.936480000000     0.269600000000    -0.347489   
O409     O      0.764730000000     0.938560000000     0.484310000000    -0.334419   
O410     O      0.665320000000     0.936930000000     0.406120000000    -0.527207   
O411     O      0.696030000000     0.959010000000     0.086100000000    -0.633781   
O412     O      0.695900000000     0.916580000000     0.086070000000    -0.497466   
O413     O      0.639510000000     0.959290000000     0.183080000000    -0.501079   
O414     O      0.617870000000     0.916310000000     0.015650000000    -0.63263    
O415     O      0.639600000000     0.916300000000     0.183270000000    -0.633112   
O416     O      0.617850000000     0.959330000000     0.015880000000    -0.500868   
O417     O      0.956310000000     0.724990000000     0.472880000000    -0.381607   
O418     O      0.920230000000     0.750370000000     0.418450000000    -0.377164   
O419     O      0.980010000000     0.649760000000     0.256220000000    -0.375944   
O420     O      0.935280000000     0.624320000000     0.299490000000    -0.375986   
O421     O      0.982950000000     0.724980000000     0.261400000000    -0.38347    
O422     O      0.936200000000     0.750410000000     0.301360000000    -0.376609   
O423     O      0.952380000000     0.649740000000     0.476700000000    -0.379808   
O424     O      0.918890000000     0.624390000000     0.419780000000    -0.376651   
O425     O      0.515160000000     0.686220000000     0.462600000000    -0.340823   
O426     O      0.916820000000     0.688670000000     0.043290000000    -0.527962   
O427     O      0.535800000000     0.686120000000     0.298240000000    -0.523974   
O428     O      0.967230000000     0.688320000000     0.179990000000    -0.340888   
O429     O      0.946060000000     0.708650000000     0.363040000000    -0.498755   
O430     O      0.946170000000     0.666120000000     0.363060000000    -0.633497   
O431     O      0.777490000000     0.649810000000     0.442660000000    -0.381185   
O432     O      0.822310000000     0.624340000000     0.399520000000    -0.376254   
O433     O      0.801330000000     0.725000000000     0.226260000000    -0.384059   
O434     O      0.837380000000     0.750380000000     0.280670000000    -0.377227   
O435     O      0.804980000000     0.649760000000     0.222650000000    -0.377703   
O436     O      0.838620000000     0.624390000000     0.279450000000    -0.376264   
O437     O      0.774120000000     0.724980000000     0.436650000000    -0.378914   
O438     O      0.821210000000     0.750410000000     0.397400000000    -0.376249   
O439     O      0.721640000000     0.686020000000     0.403790000000    -0.523047   
O440     O      0.793240000000     0.688830000000     0.019590000000    -0.349419   
O441     O      0.742630000000     0.686420000000     0.235930000000    -0.339803   
O442     O      0.841420000000     0.688240000000     0.155930000000    -0.529711   
O443     O      0.811510000000     0.666170000000     0.336090000000    -0.633944   
O444     O      0.811660000000     0.708630000000     0.336100000000    -0.49894    
O445     O      0.867990000000     0.665890000000     0.433120000000    -0.49998    
O446     O      0.889750000000     0.708840000000     0.265820000000    -0.633575   
O447     O      0.867930000000     0.708860000000     0.433300000000    -0.633035   
O448     O      0.889770000000     0.665900000000     0.265990000000    -0.497582   
Zr73     Zr     0.573190000000     0.937780000000     0.195010000000     1.37629    
Zr74     Zr     0.551870000000     0.937790000000     0.030310000000     1.37628    
Zr75     Zr     0.705560000000     0.937780000000     0.168650000000     1.37679    
Zr76     Zr     0.684210000000     0.937810000000     0.003900000000     1.37571    
Zr77     Zr     0.628770000000     0.895760000000     0.099450000000     1.38082    
Zr78     Zr     0.628690000000     0.979870000000     0.099500000000     1.37847    
Zr79     Zr     0.934340000000     0.687390000000     0.445140000000     1.37639    
Zr80     Zr     0.955830000000     0.687370000000     0.280590000000     1.37609    
Zr81     Zr     0.801950000000     0.687400000000     0.418640000000     1.37641    
Zr82     Zr     0.823360000000     0.687390000000     0.253960000000     1.37595    
Zr83     Zr     0.878820000000     0.729420000000     0.349540000000     1.38048    
Zr84     Zr     0.878820000000     0.645310000000     0.349540000000     1.38016    
C337     C      0.560450000000     0.880050000000     0.708270000000     0.404886   
C338     C      0.538650000000     0.995530000000     0.518120000000     0.403016   
C339     C      0.535910000000     0.880080000000     0.523370000000     0.405952   
C340     C      0.563650000000     0.995530000000     0.711640000000     0.402772   
C341     C      0.718720000000     0.995530000000     0.680800000000     0.403768   
C342     C      0.697070000000     0.880090000000     0.990570000000     0.405113   
C343     C      0.693930000000     0.995570000000     0.987650000000     0.402628   
C344     C      0.721520000000     0.880090000000     0.675830000000     0.405919   
C345     C      0.946980000000     0.745110000000     0.958570000000     0.40448    
C346     C      0.968650000000     0.629630000000     0.767890000000     0.4045     
C347     C      0.971150000000     0.745100000000     0.772490000000     0.406005   
C348     C      0.943550000000     0.629620000000     0.961910000000     0.404826   
C349     C      0.788850000000     0.629670000000     0.930990000000     0.404497   
C350     C      0.810620000000     0.745110000000     0.740560000000     0.404793   
C351     C      0.813810000000     0.629640000000     0.737450000000     0.404537   
C352     C      0.785980000000     0.745100000000     0.925710000000     0.406247   
C353     C      0.765490000000     0.574850000000     0.697280000000    -0.080752   
C354     C      0.773920000000     0.550300000000     0.711230000000    -0.0812013  
C355     C      0.734950000000     0.535600000000     0.691190000000     0.00715415 
C356     C      0.804180000000     0.589440000000     0.718500000000     0.00696132 
C357     C      0.742270000000     0.550360000000     0.947630000000    -0.0806169  
C358     C      0.733790000000     0.574900000000     0.961570000000    -0.0812487  
C359     C      0.772750000000     0.589600000000     0.941550000000     0.00728264 
C360     C      0.703580000000     0.535750000000     0.968770000000     0.00687313 
C361     C      0.764810000000     0.800360000000     0.696150000000    -0.0807659  
C362     C      0.774290000000     0.824860000000     0.709460000000    -0.0815308  
C363     C      0.738490000000     0.840060000000     0.683570000000     0.00810613 
C364     C      0.800330000000     0.785240000000     0.722880000000     0.00718808 
C365     C      0.523800000000     0.574860000000     0.737580000000    -0.0814347  
C366     C      0.515290000000     0.550320000000     0.751470000000    -0.0805613  
C367     C      0.554190000000     0.535710000000     0.730830000000     0.00690864 
C368     C      0.984660000000     0.589550000000     0.757110000000     0.00764484 
C369     C      0.983180000000     0.824860000000     0.989790000000    -0.0812388  
C370     C      0.992680000000     0.800350000000     0.503100000000    -0.0808699  
C371     C      0.957250000000     0.785230000000     0.976230000000     0.00745536 
C372     C      0.518900000000     0.840060000000     0.515790000000     0.00808016 
C373     C      0.983310000000     0.550290000000     0.988040000000    -0.0809366  
C374     C      0.991770000000     0.574830000000     0.501970000000    -0.0807067  
C375     C      0.952920000000     0.589430000000     0.981150000000     0.00727657 
C376     C      0.522430000000     0.535600000000     0.507680000000     0.00733008 
C377     C      0.733260000000     0.800340000000     0.959310000000    -0.0812191  
C378     C      0.742830000000     0.824840000000     0.946090000000    -0.0810855  
C379     C      0.707330000000     0.839970000000     0.972810000000     0.00773698 
C380     C      0.769040000000     0.785130000000     0.933440000000     0.00783438 
C381     C      0.514320000000     0.824830000000     0.752050000000    -0.0811089  
C382     C      0.523820000000     0.800320000000     0.738760000000    -0.0811943  
C383     C      0.987760000000     0.785150000000     0.764130000000     0.00756705 
C384     C      0.550120000000     0.839920000000     0.725850000000     0.00756688 
H785     H      0.535630000000     0.968620000000     0.617960000000     0.194257   
H786     H      0.613730000000     0.906580000000     0.984000000000     0.195845   
H787     H      0.721760000000     0.968630000000     0.581090000000     0.192764   
H788     H      0.643740000000     0.906570000000     0.714920000000     0.195741   
H789     H      0.565250000000     0.947340000000     0.915130000000     0.137256   
H790     H      0.660140000000     0.950650000000     0.886240000000     0.194878   
H791     H      0.778040000000     0.946920000000     0.515840000000     0.124711   
H792     H      0.798270000000     0.934280000000     0.618240000000     0.190504   
H793     H      0.691390000000     0.947030000000     0.783850000000     0.136342   
H794     H      0.593820000000     0.922720000000     0.812200000000     0.195263   
H795     H      0.978850000000     0.931020000000     0.680760000000     0.132884   
H796     H      0.959560000000     0.945560000000     0.578850000000     0.186415   
H797     H      0.805720000000     0.943540000000     0.683460000000     0.203705   
H798     H      0.596420000000     0.950480000000     0.813000000000     0.195205   
H799     H      0.951280000000     0.933700000000     0.516540000000     0.204924   
H800     H      0.662410000000     0.922890000000     0.886930000000     0.195198   
H801     H      0.971880000000     0.656490000000     0.868170000000     0.194623   
H802     H      0.893810000000     0.718590000000     0.734230000000     0.190513   
H803     H      0.785760000000     0.656570000000     0.831000000000     0.194671   
H804     H      0.863760000000     0.718600000000     0.964930000000     0.193833   
H805     H      0.940530000000     0.696230000000     0.665210000000     0.127068   
H806     H      0.852820000000     0.675050000000     0.637830000000     0.196909   
H807     H      0.729050000000     0.694270000000     0.768120000000     0.132762   
H808     H      0.709730000000     0.679590000000     0.869900000000     0.186299   
H809     H      0.816870000000     0.678730000000     0.534000000000     0.138252   
H810     H      0.904940000000     0.702140000000     0.559560000000     0.187441   
H811     H      0.528550000000     0.694650000000     0.931230000000     0.13425    
H812     H      0.547170000000     0.678400000000     0.830660000000     0.18708    
H813     H      0.701330000000     0.691610000000     0.932030000000     0.204775   
H814     H      0.921380000000     0.675700000000     0.566330000000     0.202765   
H815     H      0.556520000000     0.693070000000     0.772500000000     0.204557   
H816     H      0.837770000000     0.701810000000     0.634860000000     0.195921   
H817     H      0.836200000000     0.584540000000     0.697720000000     0.0305604  
H818     H      0.807820000000     0.586710000000     0.764220000000     0.0384574  
H819     H      0.703330000000     0.540540000000     0.712860000000     0.0329612  
H820     H      0.730390000000     0.538040000000     0.645480000000     0.0354062  
H821     H      0.777690000000     0.548330000000     0.757170000000     0.0419548  
H822     H      0.805680000000     0.544740000000     0.690830000000     0.0430614  
H823     H      0.770670000000     0.507870000000     0.729560000000     0.0957232  
H824     H      0.762340000000     0.576840000000     0.651280000000     0.0421659  
H825     H      0.733470000000     0.580370000000     0.717090000000     0.0447721  
H826     H      0.776510000000     0.617130000000     0.671390000000     0.0986577  
H827     H      0.671580000000     0.540640000000     0.947900000000     0.0302999  
H828     H      0.699870000000     0.538490000000     0.514490000000     0.0383546  
H829     H      0.804350000000     0.584690000000     0.963290000000     0.033049   
H830     H      0.777360000000     0.587140000000     0.895860000000     0.0355107  
H831     H      0.729970000000     0.576880000000     0.507500000000     0.042263   
H832     H      0.702040000000     0.580450000000     0.941110000000     0.0434385  
H833     H      0.737040000000     0.617330000000     0.979960000000     0.0974265  
H834     H      0.745500000000     0.548360000000     0.901650000000     0.0418203  
H835     H      0.774280000000     0.544850000000     0.967520000000     0.044191   
H836     H      0.731440000000     0.508070000000     0.921790000000     0.0967862  
H837     H      0.800290000000     0.788150000000     0.768770000000     0.0383272  
H838     H      0.834260000000     0.789430000000     0.706170000000     0.029892   
H839     H      0.737860000000     0.837470000000     0.637580000000     0.0353494  
H840     H      0.704810000000     0.835710000000     0.700880000000     0.0335654  
H841     H      0.808000000000     0.829500000000     0.692800000000     0.0437023  
H842     H      0.774440000000     0.827320000000     0.755490000000     0.0428202  
H843     H      0.776690000000     0.867680000000     0.718830000000     0.0984443  
H844     H      0.730930000000     0.795730000000     0.712320000000     0.0446258  
H845     H      0.765110000000     0.797880000000     0.650130000000     0.04183    
H846     H      0.770240000000     0.757650000000     0.677340000000     0.0968349  
H847     H      0.979690000000     0.587090000000     0.802750000000     0.0355568  
H848     H      0.953220000000     0.584640000000     0.735010000000     0.0330365  
H849     H      0.558290000000     0.538470000000     0.685170000000     0.0385835  
H850     H      0.586000000000     0.540590000000     0.752110000000     0.0301231  
H851     H      0.983460000000     0.544800000000     0.731200000000     0.0445339  
H852     H      0.511720000000     0.548330000000     0.797420000000     0.0419056  
H853     H      0.526360000000     0.508030000000     0.777720000000     0.0975008  
H854     H      0.555380000000     0.580410000000     0.758400000000     0.0435388  
H855     H      0.527970000000     0.576810000000     0.691700000000     0.0424379  
H856     H      0.520280000000     0.617260000000     0.718620000000     0.098155   
H857     H      0.552620000000     0.835700000000     0.998580000000     0.0336925  
H858     H      0.519460000000     0.837470000000     0.561790000000     0.0351022  
H859     H      0.923270000000     0.789440000000     0.992820000000     0.0299419  
H860     H      0.957370000000     0.788150000000     0.930340000000     0.0382216  
H861     H      0.992280000000     0.797870000000     0.549110000000     0.0417587  
H862     H      0.526600000000     0.795730000000     0.987030000000     0.0447217  
H863     H      0.987350000000     0.757640000000     0.521790000000     0.097039   
H864     H      0.983090000000     0.827330000000     0.943770000000     0.0427201  
H865     H      0.949420000000     0.829500000000     0.506360000000     0.0435496  
H866     H      0.980580000000     0.867690000000     0.980720000000     0.0973711  
H867     H      0.527270000000     0.538040000000     0.553350000000     0.0355758  
H868     H      0.553910000000     0.540550000000     0.985730000000     0.0329317  
H869     H      0.948960000000     0.586680000000     0.935470000000     0.0384756  
H870     H      0.921050000000     0.584550000000     0.502280000000     0.0303395  
H871     H      0.523650000000     0.580370000000     0.981860000000     0.0449024  
H872     H      0.995210000000     0.576820000000     0.547940000000     0.0422636  
H873     H      0.980550000000     0.617120000000     0.528240000000     0.0985056  
H874     H      0.951700000000     0.544730000000     0.508730000000     0.0432203  
H875     H      0.979260000000     0.548340000000     0.942130000000     0.0419764  
H876     H      0.986770000000     0.507890000000     0.969240000000     0.0966758  
H877     H      0.802720000000     0.789450000000     0.950800000000     0.0335704  
H878     H      0.769720000000     0.787730000000     0.887450000000     0.0352344  
H879     H      0.673410000000     0.835810000000     0.956020000000     0.0300049  
H880     H      0.707300000000     0.837030000000     0.518690000000     0.038334   
H881     H      0.742590000000     0.827340000000     0.900090000000     0.0422004  
H882     H      0.776710000000     0.829440000000     0.962340000000     0.0451299  
H883     H      0.737620000000     0.867560000000     0.927490000000     0.0984899  
H884     H      0.733050000000     0.797860000000     0.505330000000     0.0425029  
H885     H      0.699550000000     0.795730000000     0.942580000000     0.0433015  
H886     H      0.730710000000     0.757520000000     0.968490000000     0.0968677  
H887     H      0.550460000000     0.837030000000     0.679950000000     0.0382519  
H888     H      0.583900000000     0.835670000000     0.742980000000     0.0299524  
H889     H      0.986690000000     0.787760000000     0.810100000000     0.0355276  
H890     H      0.954260000000     0.789500000000     0.746300000000     0.0331344  
H891     H      0.557390000000     0.795630000000     0.755840000000     0.0433364  
H892     H      0.524370000000     0.797880000000     0.692730000000     0.0422301  
H893     H      0.525800000000     0.757520000000     0.728560000000     0.0962995  
H894     H      0.980600000000     0.829510000000     0.735440000000     0.0449108  
H895     H      0.514240000000     0.827270000000     0.798070000000     0.0421355  
H896     H      0.519920000000     0.867510000000     0.771300000000     0.097612   
N113     N      0.744210000000     0.512100000000     0.702670000000    -0.218662   
N114     N      0.795280000000     0.612980000000     0.706860000000    -0.217805   
N115     N      0.763430000000     0.613110000000     0.952960000000    -0.218438   
N116     N      0.712530000000     0.512230000000     0.957160000000    -0.218351   
N117     N      0.748150000000     0.863480000000     0.695390000000    -0.217946   
N118     N      0.790800000000     0.761770000000     0.711290000000    -0.218594   
N119     N      0.545180000000     0.512190000000     0.742280000000    -0.218047   
N120     N      0.994000000000     0.613040000000     0.745780000000    -0.218071   
N121     N      0.966780000000     0.761770000000     0.987850000000    -0.218423   
N122     N      0.509230000000     0.863480000000     0.503960000000    -0.218163   
N123     N      0.961890000000     0.612960000000     0.992670000000    -0.218006   
N124     N      0.513160000000     0.512110000000     0.996230000000    -0.2184     
N125     N      0.716940000000     0.863430000000     0.961330000000    -0.218093   
N126     N      0.759320000000     0.761710000000     0.945180000000    -0.218349   
N127     N      0.997530000000     0.761710000000     0.752500000000    -0.218569   
N128     N      0.540560000000     0.863380000000     0.737430000000    -0.218382   
O449     O      0.551090000000     0.900170000000     0.722550000000    -0.382207   
O450     O      0.587330000000     0.874790000000     0.668270000000    -0.37698    
O451     O      0.527310000000     0.975400000000     0.506430000000    -0.382231   
O452     O      0.572130000000     0.500850000000     0.549540000000    -0.376423   
O453     O      0.524040000000     0.900220000000     0.512420000000    -0.377946   
O454     O      0.571170000000     0.874760000000     0.551650000000    -0.375867   
O455     O      0.554770000000     0.975410000000     0.726340000000    -0.379793   
O456     O      0.588510000000     0.500770000000     0.669680000000    -0.376547   
O457     O      0.992440000000     0.938810000000     0.713020000000    -0.339962   
O458     O      0.591210000000     0.936790000000     0.793030000000    -0.527338   
O459     O      0.971520000000     0.939210000000     0.544920000000    -0.523736   
O460     O      0.543310000000     0.936330000000     0.929350000000    -0.348291   
O461     O      0.561560000000     0.916560000000     0.612830000000    -0.498987   
O462     O      0.561400000000     0.959010000000     0.612880000000    -0.633457   
O463     O      0.730110000000     0.975400000000     0.692440000000    -0.385062   
O464     O      0.685200000000     0.500870000000     0.649450000000    -0.376461   
O465     O      0.706440000000     0.900210000000     0.976370000000    -0.377206   
O466     O      0.670200000000     0.874820000000     0.530550000000    -0.376873   
O467     O      0.702830000000     0.975450000000     0.972900000000    -0.384372   
O468     O      0.668940000000     0.500810000000     0.529500000000    -0.376862   
O469     O      0.733330000000     0.900210000000     0.686850000000    -0.374914   
O470     O      0.686370000000     0.874770000000     0.647370000000    -0.375839   
O471     O      0.785880000000     0.938810000000     0.653750000000    -0.525044   
O472     O      0.714260000000     0.936480000000     0.769600000000    -0.347471   
O473     O      0.764730000000     0.938560000000     0.984310000000    -0.334458   
O474     O      0.665320000000     0.936930000000     0.906120000000    -0.527163   
O475     O      0.696030000000     0.959020000000     0.586100000000    -0.633988   
O476     O      0.695900000000     0.916580000000     0.586070000000    -0.497412   
O477     O      0.639510000000     0.959290000000     0.683070000000    -0.501193   
O478     O      0.617870000000     0.916310000000     0.515650000000    -0.632642   
O479     O      0.639600000000     0.916300000000     0.683270000000    -0.632927   
O480     O      0.617850000000     0.959330000000     0.515890000000    -0.500952   
O481     O      0.956320000000     0.724990000000     0.972880000000    -0.381569   
O482     O      0.920230000000     0.750370000000     0.918450000000    -0.377231   
O483     O      0.980010000000     0.649760000000     0.756220000000    -0.375865   
O484     O      0.935290000000     0.624320000000     0.799490000000    -0.376021   
O485     O      0.982950000000     0.724980000000     0.761410000000    -0.383607   
O486     O      0.936200000000     0.750410000000     0.801360000000    -0.376653   
O487     O      0.952370000000     0.649740000000     0.976700000000    -0.379776   
O488     O      0.918880000000     0.624380000000     0.919780000000    -0.376495   
O489     O      0.515160000000     0.686220000000     0.962600000000    -0.340817   
O490     O      0.916820000000     0.688680000000     0.543290000000    -0.527939   
O491     O      0.535800000000     0.686120000000     0.798240000000    -0.524113   
O492     O      0.967240000000     0.688320000000     0.680000000000    -0.340802   
O493     O      0.946050000000     0.708650000000     0.863030000000    -0.498929   
O494     O      0.946160000000     0.666120000000     0.863060000000    -0.633346   
O495     O      0.777490000000     0.649810000000     0.942660000000    -0.381178   
O496     O      0.822310000000     0.624340000000     0.899520000000    -0.376168   
O497     O      0.801330000000     0.724990000000     0.726260000000    -0.383913   
O498     O      0.837380000000     0.750380000000     0.780670000000    -0.377086   
O499     O      0.804980000000     0.649750000000     0.722650000000    -0.377828   
O500     O      0.838620000000     0.624390000000     0.779450000000    -0.376348   
O501     O      0.774120000000     0.724980000000     0.936650000000    -0.378907   
O502     O      0.821210000000     0.750410000000     0.897400000000    -0.376237   
O503     O      0.721630000000     0.686020000000     0.903790000000    -0.523203   
O504     O      0.793240000000     0.688830000000     0.519590000000    -0.349372   
O505     O      0.742630000000     0.686420000000     0.735930000000    -0.339795   
O506     O      0.841410000000     0.688240000000     0.655930000000    -0.529666   
O507     O      0.811510000000     0.666170000000     0.836090000000    -0.633954   
O508     O      0.811660000000     0.708630000000     0.836100000000    -0.498886   
O509     O      0.867980000000     0.665890000000     0.933130000000    -0.499906   
O510     O      0.889750000000     0.708840000000     0.765830000000    -0.63364    
O511     O      0.867920000000     0.708860000000     0.933300000000    -0.633086   
O512     O      0.889770000000     0.665900000000     0.765990000000    -0.497522   
Zr85     Zr     0.573190000000     0.937780000000     0.695010000000     1.37629    
Zr86     Zr     0.551870000000     0.937790000000     0.530310000000     1.37642    
Zr87     Zr     0.705560000000     0.937790000000     0.668650000000     1.3767     
Zr88     Zr     0.684200000000     0.937810000000     0.503900000000     1.37575    
Zr89     Zr     0.628770000000     0.895760000000     0.599450000000     1.38069    
Zr90     Zr     0.628690000000     0.979870000000     0.599500000000     1.37864    
Zr91     Zr     0.934340000000     0.687390000000     0.945140000000     1.37632    
Zr92     Zr     0.955830000000     0.687380000000     0.780590000000     1.37613    
Zr93     Zr     0.801950000000     0.687400000000     0.918640000000     1.3765     
Zr94     Zr     0.823360000000     0.687390000000     0.753960000000     1.37597    
Zr95     Zr     0.878830000000     0.729420000000     0.849550000000     1.38058    
Zr96     Zr     0.878820000000     0.645310000000     0.849540000000     1.3801     


