data_structure

_audit_creation_method RASPA-1.0
_audit_creation_date 2023-5-19
_audit_author_name 'Poobodin Mano'

_cell_length_a    32.6318
_cell_length_b    43.6536
_cell_length_c    24.9228
_cell_angle_alpha 89.9987
_cell_angle_beta  89.9987
_cell_angle_gamma 89.9461
_cell_volume      35502.4

_symmetry_cell_setting          triclinic
_symmetry_space_group_name_Hall 'P 1'
_symmetry_space_group_name_H-M  'P 1'
_symmetry_Int_Tables_number     1

_symmetry_equiv_pos_as_xyz 'x,y,z'

loop_
_atom_site_label
_atom_site_type_symbol
_atom_site_fract_x
_atom_site_fract_y
_atom_site_fract_z
_atom_site_charge
C1       C      0.453290000000     0.377770000000     0.109540000000     0.389886   
C2       C      0.452540000000     0.037590000000     0.425560000000     0.39138    
C3       C      0.450770000000     0.377880000000     0.428350000000     0.393234   
C4       C      0.454850000000     0.037380000000     0.112600000000     0.389516   
C5       C      0.099630000000     0.037480000000     0.108590000000     0.390484   
C6       C      0.098390000000     0.377990000000     0.424550000000     0.390323   
C7       C      0.096760000000     0.037750000000     0.422560000000     0.390006   
C8       C      0.106780000000     0.378480000000     0.096200000000     0.39624    
C9       C      0.349060000000     0.286060000000     0.362390000000     0.391455   
C10      C      0.349580000000     0.126530000000     0.177710000000     0.390562   
C11      C      0.350930000000     0.286200000000     0.180160000000     0.390498   
C12      C      0.347200000000     0.126350000000     0.364810000000     0.392921   
C13      C      0.203230000000     0.126350000000     0.361880000000     0.390764   
C14      C      0.197610000000     0.285520000000     0.187600000000     0.394443   
C15      C      0.204620000000     0.126540000000     0.175870000000     0.39034    
C16      C      0.201530000000     0.286100000000     0.359160000000     0.39163    
C17      C      0.152760000000     0.109800000000     0.108770000000    -0.0138472  
C18      C      0.192010000000     0.070890000000     0.161820000000    -0.0125499  
C19      C      0.112750000000     0.093120000000     0.121830000000    -0.0118272  
C20      C      0.152050000000     0.054180000000     0.174920000000    -0.0125454  
C21      C      0.149540000000     0.054960000000     0.357000000000    -0.0133404  
C22      C      0.109800000000     0.093510000000     0.410130000000    -0.0123992  
C23      C      0.189570000000     0.070620000000     0.373420000000    -0.0120453  
C24      C      0.149790000000     0.109220000000     0.426560000000    -0.012748   
C25      C      0.127430000000     0.323890000000     0.094560000000    -0.011162   
C26      C      0.170650000000     0.362790000000     0.142270000000    -0.0116517  
C27      C      0.134310000000     0.301230000000     0.140310000000    -0.0136339  
C28      C      0.177520000000     0.340200000000     0.188120000000    -0.0120914  
C29      C      0.362800000000     0.070820000000     0.165040000000    -0.0119432  
C30      C      0.402360000000     0.109550000000     0.111980000000    -0.0126141  
C31      C      0.402790000000     0.054380000000     0.179320000000    -0.0136013  
C32      C      0.442300000000     0.093090000000     0.126370000000    -0.0125178  
C33      C      0.358580000000     0.341790000000     0.378780000000    -0.0124779  
C34      C      0.402210000000     0.303440000000     0.427060000000    -0.0125989  
C35      C      0.396700000000     0.360550000000     0.365000000000    -0.0110342  
C36      C      0.440390000000     0.322130000000     0.413310000000    -0.0115014  
C37      C      0.439630000000     0.093340000000     0.412990000000    -0.0124271  
C38      C      0.398980000000     0.054770000000     0.361080000000    -0.0130153  
C39      C      0.399910000000     0.109090000000     0.430420000000    -0.01213    
C40      C      0.359310000000     0.070580000000     0.378550000000    -0.011898   
C41      C      0.146890000000     0.303340000000     0.421830000000    -0.0110489  
C42      C      0.190420000000     0.341850000000     0.373660000000    -0.0113921  
C43      C      0.108720000000     0.322270000000     0.408680000000    -0.0124668  
C44      C      0.152170000000     0.360730000000     0.360570000000    -0.0131539  
C45      C      0.442370000000     0.322060000000     0.124660000000    -0.0126721  
C46      C      0.401090000000     0.360690000000     0.175800000000    -0.0133431  
C47      C      0.403570000000     0.303250000000     0.114520000000    -0.0114405  
C48      C      0.362270000000     0.341910000000     0.165670000000    -0.0115463  
H1       H      0.440290000000     0.000070000000     0.020340000000     0.192949   
H2       H      0.023540000000     0.414800000000     0.404510000000     0.196177   
H3       H      0.111440000000     0.000140000000     0.014320000000     0.19315    
H4       H      0.028570000000     0.414100000000     0.129510000000     0.196963   
H5       H      0.487310000000     0.470130000000     0.331480000000     0.13601    
H6       H      0.078410000000     0.475470000000     0.317990000000     0.201719   
H7       H      0.168980000000     0.453820000000     0.463970000000     0.127861   
H8       H      0.177690000000     0.466350000000     0.070640000000     0.185014   
H9       H      0.065960000000     0.471450000000     0.203110000000     0.137595   
H10      H      0.478370000000     0.436830000000     0.214000000000     0.20004    
H11      H      0.382650000000     0.450490000000     0.072460000000     0.131361   
H12      H      0.375460000000     0.469580000000     0.470050000000     0.185497   
H13      H      0.174950000000     0.457270000000     0.135810000000     0.20029    
H14      H      0.475670000000     0.475090000000     0.216020000000     0.202797   
H15      H      0.373940000000     0.450060000000     0.412290000000     0.201329   
H16      H      0.071420000000     0.437540000000     0.320450000000     0.198111   
H17      H      0.361970000000     0.163810000000     0.270930000000     0.195435   
H18      H      0.276830000000     0.249910000000     0.157710000000     0.190909   
H19      H      0.190730000000     0.163920000000     0.268930000000     0.192856   
H20      H      0.275640000000     0.249210000000     0.382670000000     0.19546    
H21      H      0.319940000000     0.226130000000     0.083670000000     0.129579   
H22      H      0.237590000000     0.193300000000     0.073720000000     0.20442    
H23      H      0.131480000000     0.201830000000     0.213800000000     0.12459    
H24      H      0.125950000000     0.199840000000     0.320870000000     0.183811   
H25      H      0.239440000000     0.191160000000     0.456370000000     0.139267   
H26      H      0.314150000000     0.221090000000     0.465080000000     0.192122   
H27      H      0.419670000000     0.217230000000     0.320600000000     0.134447   
H28      H      0.426480000000     0.196780000000     0.219180000000     0.186571   
H29      H      0.127220000000     0.209280000000     0.385940000000     0.200369   
H30      H      0.351230000000     0.194650000000     0.468510000000     0.209603   
H31      H      0.426280000000     0.212820000000     0.158170000000     0.199947   
H32      H      0.218800000000     0.228980000000     0.075020000000     0.200184   
H33      H      0.206340000000     0.060260000000     0.125860000000     0.0370751  
H34      H      0.164590000000     0.101620000000     0.069460000000     0.0371185  
H35      H      0.091460000000     0.096410000000     0.087510000000     0.0430745  
H36      H      0.213440000000     0.067540000000     0.195980000000     0.0428728  
H37      H      0.159020000000     0.029390000000     0.179100000000     0.0389858  
H38      H      0.140300000000     0.062300000000     0.214310000000     0.0353828  
H39      H      0.145850000000     0.134590000000     0.104440000000     0.0452822  
H40      H      0.098340000000     0.103810000000     0.157660000000     0.0377299  
H41      H      0.097210000000     0.104990000000     0.373860000000     0.0360807  
H42      H      0.139230000000     0.064290000000     0.317730000000     0.035507   
H43      H      0.212130000000     0.067490000000     0.340480000000     0.0434551  
H44      H      0.087140000000     0.096690000000     0.442920000000     0.0429179  
H45      H      0.143550000000     0.134030000000     0.432160000000     0.0404327  
H46      H      0.160020000000     0.099990000000     0.465930000000     0.037061   
H47      H      0.155700000000     0.030160000000     0.351190000000     0.0424152  
H48      H      0.202220000000     0.059070000000     0.409570000000     0.0384065  
H49      H      0.196740000000     0.361450000000     0.113650000000     0.0371277  
H50      H      0.150080000000     0.319440000000     0.062150000000     0.0362701  
H51      H      0.134720000000     0.277890000000     0.122490000000     0.0432334  
H52      H      0.170480000000     0.386170000000     0.159900000000     0.039735   
H53      H      0.208600000000     0.344620000000     0.204610000000     0.0429458  
H54      H      0.154960000000     0.344750000000     0.220600000000     0.0380621  
H55      H      0.096420000000     0.319450000000     0.077850000000     0.0429649  
H56      H      0.108110000000     0.302410000000     0.168780000000     0.0395725  
H57      H      0.391170000000     0.101060000000     0.072570000000     0.0375177  
H58      H      0.349010000000     0.059860000000     0.129050000000     0.038774   
H59      H      0.396100000000     0.029590000000     0.184130000000     0.0436303  
H60      H      0.409120000000     0.134340000000     0.107330000000     0.0417385  
H61      H      0.464260000000     0.096370000000     0.092790000000     0.0428733  
H62      H      0.455950000000     0.103970000000     0.162530000000     0.036438   
H63      H      0.341020000000     0.067630000000     0.198840000000     0.0435195  
H64      H      0.414080000000     0.062920000000     0.218650000000     0.0360478  
H65      H      0.390980000000     0.310110000000     0.467540000000     0.0364695  
H66      H      0.344530000000     0.350960000000     0.416130000000     0.0368381  
H67      H      0.387650000000     0.385070000000     0.363410000000     0.0389191  
H68      H      0.411180000000     0.278910000000     0.428950000000     0.042453   
H69      H      0.462850000000     0.318990000000     0.446370000000     0.0433187  
H70      H      0.454580000000     0.312860000000     0.376120000000     0.037869   
H71      H      0.335960000000     0.344990000000     0.345950000000     0.0432414  
H72      H      0.407800000000     0.354010000000     0.324380000000     0.0374083  
H73      H      0.408660000000     0.063980000000     0.321490000000     0.0367078  
H74      H      0.451650000000     0.104760000000     0.376370000000     0.0384355  
H75      H      0.406130000000     0.133890000000     0.436170000000     0.0414545  
H76      H      0.392660000000     0.029960000000     0.355610000000     0.0410782  
H77      H      0.336000000000     0.067350000000     0.346570000000     0.0431875  
H78      H      0.347380000000     0.059230000000     0.415310000000     0.0365046  
H79      H      0.462800000000     0.096520000000     0.445170000000     0.043472   
H80      H      0.390130000000     0.099760000000     0.469900000000     0.0366417  
H81      H      0.204950000000     0.350990000000     0.410700000000     0.038164   
H82      H      0.158150000000     0.309580000000     0.462480000000     0.0362774  
H83      H      0.086390000000     0.319010000000     0.441840000000     0.042983   
H84      H      0.212550000000     0.345030000000     0.340240000000     0.0435576  
H85      H      0.161230000000     0.385250000000     0.359160000000     0.0441012  
H86      H      0.140780000000     0.354380000000     0.320040000000     0.0367981  
H87      H      0.137750000000     0.278830000000     0.422980000000     0.0391982  
H88      H      0.094340000000     0.313230000000     0.371450000000     0.0372525  
H89      H      0.414090000000     0.354450000000     0.215580000000     0.0367362  
H90      H      0.458470000000     0.312940000000     0.160600000000     0.0371073  
H91      H      0.412610000000     0.278720000000     0.112840000000     0.0369235  
H92      H      0.392100000000     0.385230000000     0.177630000000     0.0438707  
H93      H      0.341710000000     0.345120000000     0.200790000000     0.0432394  
H94      H      0.346110000000     0.351080000000     0.129820000000     0.0378013  
H95      H      0.463000000000     0.318820000000     0.089650000000     0.0428178  
H96      H      0.390640000000     0.309430000000     0.074690000000     0.0354278  
N1       N      0.121080000000     0.060530000000     0.133220000000    -0.166233   
N2       N      0.183600000000     0.103480000000     0.150630000000    -0.165092   
N3       N      0.181750000000     0.103150000000     0.386050000000    -0.165749   
N4       N      0.117710000000     0.060980000000     0.397690000000    -0.165777   
N5       N      0.172490000000     0.308390000000     0.169280000000    -0.166043   
N6       N      0.132330000000     0.355650000000     0.113630000000    -0.166118   
N7       N      0.434000000000     0.060530000000     0.137900000000    -0.165571   
N8       N      0.371010000000     0.103380000000     0.153230000000    -0.165141   
N9       N      0.429350000000     0.354560000000     0.404530000000    -0.165974   
N10      N      0.369770000000     0.309380000000     0.387270000000    -0.1657     
N11      N      0.367580000000     0.103110000000     0.390440000000    -0.165847   
N12      N      0.431460000000     0.060800000000     0.400870000000    -0.166164   
N13      N      0.119760000000     0.354700000000     0.400360000000    -0.165071   
N14      N      0.179500000000     0.309400000000     0.382290000000    -0.165351   
N15      N      0.372620000000     0.309430000000     0.156300000000    -0.166076   
N16      N      0.431940000000     0.354530000000     0.133890000000    -0.165057   
O1       O      0.443850000000     0.405680000000     0.121380000000    -0.3764     
O2       O      0.481640000000     0.370620000000     0.075870000000    -0.373623   
O3       O      0.443310000000     0.009700000000     0.413480000000    -0.379106   
O4       O      0.480140000000     0.044780000000     0.460180000000    -0.373495   
O5       O      0.440900000000     0.405770000000     0.416980000000    -0.374612   
O6       O      0.479690000000     0.370760000000     0.461050000000    -0.374288   
O7       O      0.446140000000     0.009450000000     0.125100000000    -0.376861   
O8       O      0.481700000000     0.044660000000     0.077000000000    -0.372691   
O9       O      0.392510000000     0.458740000000     0.107130000000    -0.341972   
O10      O      0.475080000000     0.456220000000     0.195780000000    -0.529231   
O11      O      0.389490000000     0.459320000000     0.441010000000    -0.523988   
O12      O      0.464600000000     0.456260000000     0.341660000000    -0.353992   
O13      O      0.463980000000     0.428400000000     0.019380000000    -0.49834    
O14      O      0.464080000000     0.486900000000     0.019570000000    -0.632536   
O15      O      0.108650000000     0.009540000000     0.120570000000    -0.381363   
O16      O      0.071880000000     0.044820000000     0.074200000000    -0.372621   
O17      O      0.108050000000     0.405920000000     0.413120000000    -0.374621   
O18      O      0.069820000000     0.370810000000     0.457760000000    -0.371308   
O19      O      0.105520000000     0.009870000000     0.409760000000    -0.378641   
O20      O      0.069830000000     0.044920000000     0.458130000000    -0.372472   
O21      O      0.115790000000     0.406380000000     0.108240000000    -0.373307   
O22      O      0.075480000000     0.370960000000     0.067810000000    -0.373962   
O23      O      0.161600000000     0.461040000000     0.101830000000    -0.519425   
O24      O      0.082160000000     0.453310000000     0.192150000000    -0.360696   
O25      O      0.159220000000     0.458920000000     0.427420000000    -0.340682   
O26      O      0.076790000000     0.456720000000     0.338470000000    -0.53155    
O27      O      0.087650000000     0.487000000000     0.014950000000    -0.633671   
O28      O      0.087320000000     0.428770000000     0.014680000000    -0.497295   
O29      O      0.027430000000     0.487580000000     0.098820000000    -0.500505   
O30      O      0.024130000000     0.428160000000     0.435390000000    -0.63336    
O31      O      0.027670000000     0.427690000000     0.098920000000    -0.63245    
O32      O      0.024000000000     0.487650000000     0.435800000000    -0.499243   
O33      O      0.358800000000     0.258160000000     0.373950000000    -0.376525   
O34      O      0.320900000000     0.293190000000     0.328550000000    -0.374391   
O35      O      0.358410000000     0.154450000000     0.165290000000    -0.371394   
O36      O      0.322110000000     0.119260000000     0.212490000000    -0.371969   
O37      O      0.360420000000     0.258290000000     0.168420000000    -0.381403   
O38      O      0.322210000000     0.293360000000     0.213290000000    -0.374117   
O39      O      0.356390000000     0.154230000000     0.376990000000    -0.376188   
O40      O      0.320260000000     0.119170000000     0.329310000000    -0.372984   
O41      O      0.411370000000     0.204830000000     0.352030000000    -0.349069   
O42      O      0.333260000000     0.207510000000     0.447420000000    -0.527697   
O43      O      0.411590000000     0.205230000000     0.189100000000    -0.522565   
O44      O      0.334360000000     0.206860000000     0.092840000000    -0.351755   
O45      O      0.338380000000     0.235580000000     0.270780000000    -0.499264   
O46      O      0.338210000000     0.177020000000     0.270610000000    -0.632326   
O47      O      0.194410000000     0.154240000000     0.374540000000    -0.378932   
O48      O      0.230720000000     0.119160000000     0.327050000000    -0.372413   
O49      O      0.188670000000     0.257600000000     0.175510000000    -0.376401   
O50      O      0.228420000000     0.293020000000     0.216900000000    -0.374343   
O51      O      0.195720000000     0.154490000000     0.163740000000    -0.375583   
O52      O      0.231830000000     0.119210000000     0.210980000000    -0.371888   
O53      O      0.191780000000     0.258190000000     0.370510000000    -0.371986   
O54      O      0.230770000000     0.293260000000     0.326940000000    -0.370732   
O55      O      0.141360000000     0.204930000000     0.352740000000    -0.521288   
O56      O      0.219940000000     0.207730000000     0.447110000000    -0.360664   
O57      O      0.142550000000     0.203370000000     0.176910000000    -0.336188   
O58      O      0.226090000000     0.210300000000     0.093500000000    -0.532722   
O59      O      0.214540000000     0.177050000000     0.269280000000    -0.633624   
O60      O      0.214940000000     0.235270000000     0.269490000000    -0.495961   
O61      O      0.275980000000     0.176390000000     0.351440000000    -0.497643   
O62      O      0.276950000000     0.236280000000     0.188240000000    -0.632428   
O63      O      0.275910000000     0.235830000000     0.351800000000    -0.633302   
O64      O      0.277130000000     0.176410000000     0.188380000000    -0.4951     
Zr1      Zr     0.466850000000     0.457560000000     0.099660000000     1.3737     
Zr2      Zr     0.463300000000     0.457760000000     0.439300000000     1.3743     
Zr3      Zr     0.088080000000     0.457750000000     0.095070000000     1.37453    
Zr4      Zr     0.084860000000     0.457900000000     0.434600000000     1.37458    
Zr5      Zr     0.025840000000     0.399750000000     0.016890000000     1.37753    
Zr6      Zr     0.025820000000     0.015940000000     0.017380000000     1.37218    
Zr7      Zr     0.336810000000     0.206200000000     0.350820000000     1.3745     
Zr8      Zr     0.337770000000     0.206380000000     0.190490000000     1.37254    
Zr9      Zr     0.215140000000     0.206170000000     0.349660000000     1.3739     
Zr10     Zr     0.216440000000     0.206270000000     0.189130000000     1.37528    
Zr11     Zr     0.276500000000     0.264230000000     0.270280000000     1.37833    
Zr12     Zr     0.276370000000     0.148070000000     0.269870000000     1.37662    
C49      C      0.453290000000     0.377770000000     0.609540000000     0.389891   
C50      C      0.452540000000     0.037590000000     0.925560000000     0.391355   
C51      C      0.450770000000     0.377880000000     0.928350000000     0.393275   
C52      C      0.454850000000     0.037380000000     0.612600000000     0.389521   
C53      C      0.099630000000     0.037480000000     0.608590000000     0.390513   
C54      C      0.098390000000     0.377990000000     0.924550000000     0.39032    
C55      C      0.096760000000     0.037750000000     0.922560000000     0.390003   
C56      C      0.106780000000     0.378470000000     0.596200000000     0.396151   
C57      C      0.349060000000     0.286060000000     0.862390000000     0.391411   
C58      C      0.349580000000     0.126530000000     0.677710000000     0.390559   
C59      C      0.350930000000     0.286200000000     0.680160000000     0.3905     
C60      C      0.347200000000     0.126350000000     0.864810000000     0.393005   
C61      C      0.203230000000     0.126350000000     0.861880000000     0.390765   
C62      C      0.197610000000     0.285520000000     0.687600000000     0.394464   
C63      C      0.204620000000     0.126540000000     0.675870000000     0.390339   
C64      C      0.201530000000     0.286100000000     0.859150000000     0.39171    
C65      C      0.152760000000     0.109800000000     0.608770000000    -0.0138489  
C66      C      0.192010000000     0.070890000000     0.661830000000    -0.0125548  
C67      C      0.112750000000     0.093120000000     0.621820000000    -0.0118373  
C68      C      0.152050000000     0.054180000000     0.674920000000    -0.012561   
C69      C      0.149540000000     0.054960000000     0.857000000000    -0.0133463  
C70      C      0.109800000000     0.093510000000     0.910130000000    -0.0124111  
C71      C      0.189570000000     0.070620000000     0.873420000000    -0.0120275  
C72      C      0.149790000000     0.109220000000     0.926560000000    -0.0127424  
C73      C      0.127430000000     0.323890000000     0.594550000000    -0.0112006  
C74      C      0.170650000000     0.362790000000     0.642270000000    -0.0117024  
C75      C      0.134310000000     0.301230000000     0.640310000000    -0.0136338  
C76      C      0.177520000000     0.340190000000     0.688120000000    -0.0119941  
C77      C      0.362800000000     0.070820000000     0.665040000000    -0.0119616  
C78      C      0.402360000000     0.109550000000     0.611980000000    -0.0125673  
C79      C      0.402790000000     0.054380000000     0.679320000000    -0.0135961  
C80      C      0.442300000000     0.093090000000     0.626370000000    -0.0125339  
C81      C      0.358580000000     0.341790000000     0.878780000000    -0.0125179  
C82      C      0.402210000000     0.303440000000     0.927070000000    -0.0126661  
C83      C      0.396700000000     0.360540000000     0.865000000000    -0.0109831  
C84      C      0.440390000000     0.322130000000     0.913310000000    -0.0114694  
C85      C      0.439630000000     0.093340000000     0.913000000000    -0.0124576  
C86      C      0.398980000000     0.054770000000     0.861080000000    -0.0129715  
C87      C      0.399910000000     0.109090000000     0.930420000000    -0.0121193  
C88      C      0.359310000000     0.070580000000     0.878550000000    -0.0119102  
C89      C      0.146890000000     0.303340000000     0.921830000000    -0.0110506  
C90      C      0.190420000000     0.341850000000     0.873660000000    -0.0114298  
C91      C      0.108720000000     0.322270000000     0.908680000000    -0.0124536  
C92      C      0.152170000000     0.360730000000     0.860570000000    -0.0131427  
C93      C      0.442370000000     0.322060000000     0.624660000000    -0.0126266  
C94      C      0.401090000000     0.360690000000     0.675800000000    -0.0133861  
C95      C      0.403570000000     0.303250000000     0.614520000000    -0.0114807  
C96      C      0.362270000000     0.341900000000     0.665670000000    -0.0114527  
H97      H      0.440290000000     0.000070000000     0.520340000000     0.192965   
H98      H      0.023540000000     0.414790000000     0.904510000000     0.196027   
H99      H      0.111440000000     0.000140000000     0.514320000000     0.193158   
H100     H      0.028570000000     0.414100000000     0.629500000000     0.197092   
H101     H      0.487310000000     0.470130000000     0.831480000000     0.136019   
H102     H      0.078410000000     0.475470000000     0.817980000000     0.201563   
H103     H      0.168980000000     0.453820000000     0.963970000000     0.127868   
H104     H      0.177690000000     0.466350000000     0.570640000000     0.185024   
H105     H      0.065960000000     0.471450000000     0.703120000000     0.137587   
H106     H      0.478370000000     0.436830000000     0.714010000000     0.199891   
H107     H      0.382650000000     0.450490000000     0.572450000000     0.131286   
H108     H      0.375460000000     0.469580000000     0.970050000000     0.185511   
H109     H      0.174950000000     0.457270000000     0.635810000000     0.200293   
H110     H      0.475670000000     0.475090000000     0.716020000000     0.202684   
H111     H      0.373940000000     0.450060000000     0.912290000000     0.201333   
H112     H      0.071420000000     0.437530000000     0.820450000000     0.197851   
H113     H      0.361970000000     0.163810000000     0.770920000000     0.195439   
H114     H      0.276830000000     0.249910000000     0.657710000000     0.190907   
H115     H      0.190730000000     0.163920000000     0.768920000000     0.192859   
H116     H      0.275640000000     0.249210000000     0.882670000000     0.195592   
H117     H      0.319940000000     0.226130000000     0.583660000000     0.129585   
H118     H      0.237590000000     0.193300000000     0.573720000000     0.204428   
H119     H      0.131480000000     0.201830000000     0.713800000000     0.124589   
H120     H      0.125950000000     0.199840000000     0.820860000000     0.183739   
H121     H      0.239440000000     0.191160000000     0.956370000000     0.139273   
H122     H      0.314150000000     0.221080000000     0.965080000000     0.192209   
H123     H      0.419670000000     0.217230000000     0.820600000000     0.134359   
H124     H      0.426480000000     0.196780000000     0.719190000000     0.186636   
H125     H      0.127220000000     0.209280000000     0.885940000000     0.200306   
H126     H      0.351230000000     0.194650000000     0.968510000000     0.20957    
H127     H      0.426280000000     0.212810000000     0.658170000000     0.19986    
H128     H      0.218800000000     0.228980000000     0.575020000000     0.200191   
H129     H      0.206340000000     0.060260000000     0.625860000000     0.0370823  
H130     H      0.164590000000     0.101620000000     0.569460000000     0.0371322  
H131     H      0.091460000000     0.096410000000     0.587520000000     0.0430906  
H132     H      0.213440000000     0.067540000000     0.695980000000     0.0428776  
H133     H      0.159020000000     0.029390000000     0.679100000000     0.0389922  
H134     H      0.140300000000     0.062300000000     0.714310000000     0.035386   
H135     H      0.145850000000     0.134590000000     0.604450000000     0.0452923  
H136     H      0.098340000000     0.103810000000     0.657660000000     0.0377304  
H137     H      0.097210000000     0.104990000000     0.873870000000     0.0360899  
H138     H      0.139230000000     0.064290000000     0.817730000000     0.0355101  
H139     H      0.212130000000     0.067490000000     0.840480000000     0.0434529  
H140     H      0.087130000000     0.096690000000     0.942910000000     0.0429272  
H141     H      0.143550000000     0.134030000000     0.932160000000     0.0404439  
H142     H      0.160020000000     0.099990000000     0.965930000000     0.0370711  
H143     H      0.155700000000     0.030160000000     0.851190000000     0.0424198  
H144     H      0.202220000000     0.059070000000     0.909580000000     0.0384042  
H145     H      0.196740000000     0.361440000000     0.613650000000     0.0371484  
H146     H      0.150080000000     0.319440000000     0.562150000000     0.0362941  
H147     H      0.134720000000     0.277890000000     0.622490000000     0.0432362  
H148     H      0.170480000000     0.386170000000     0.659900000000     0.0397517  
H149     H      0.208600000000     0.344610000000     0.704610000000     0.0429279  
H150     H      0.154960000000     0.344750000000     0.720600000000     0.0380332  
H151     H      0.096420000000     0.319450000000     0.577860000000     0.042984   
H152     H      0.108110000000     0.302410000000     0.668780000000     0.0395727  
H153     H      0.391170000000     0.101060000000     0.572560000000     0.0375115  
H154     H      0.349010000000     0.059860000000     0.629050000000     0.0387854  
H155     H      0.396100000000     0.029590000000     0.684130000000     0.0436298  
H156     H      0.409120000000     0.134340000000     0.607330000000     0.0417332  
H157     H      0.464260000000     0.096370000000     0.592790000000     0.0428835  
H158     H      0.455950000000     0.103970000000     0.662530000000     0.0364417  
H159     H      0.341020000000     0.067630000000     0.698840000000     0.0435213  
H160     H      0.414080000000     0.062920000000     0.718650000000     0.0360449  
H161     H      0.390980000000     0.310100000000     0.967540000000     0.0365005  
H162     H      0.344530000000     0.350950000000     0.916140000000     0.0368597  
H163     H      0.387650000000     0.385070000000     0.863410000000     0.0388995  
H164     H      0.411180000000     0.278910000000     0.928950000000     0.0424828  
H165     H      0.462850000000     0.318990000000     0.946370000000     0.0433199  
H166     H      0.454580000000     0.312860000000     0.876120000000     0.0378626  
H167     H      0.335960000000     0.344990000000     0.845960000000     0.0432553  
H168     H      0.407800000000     0.354010000000     0.824390000000     0.0373998  
H169     H      0.408660000000     0.063980000000     0.821480000000     0.036691   
H170     H      0.451650000000     0.104760000000     0.876370000000     0.0384446  
H171     H      0.406130000000     0.133890000000     0.936170000000     0.0414596  
H172     H      0.392660000000     0.029960000000     0.855610000000     0.0410678  
H173     H      0.336000000000     0.067350000000     0.846570000000     0.0431915  
H174     H      0.347380000000     0.059230000000     0.915310000000     0.0365118  
H175     H      0.462800000000     0.096520000000     0.945170000000     0.0434871  
H176     H      0.390130000000     0.099760000000     0.969900000000     0.0366495  
H177     H      0.204950000000     0.350990000000     0.910700000000     0.0381828  
H178     H      0.158150000000     0.309580000000     0.962470000000     0.036299   
H179     H      0.086390000000     0.319010000000     0.941850000000     0.0429851  
H180     H      0.212550000000     0.345020000000     0.840240000000     0.043578   
H181     H      0.161230000000     0.385250000000     0.859160000000     0.0441032  
H182     H      0.140780000000     0.354380000000     0.820040000000     0.036794   
H183     H      0.137750000000     0.278830000000     0.922990000000     0.0391954  
H184     H      0.094340000000     0.313230000000     0.871450000000     0.0372483  
H185     H      0.414090000000     0.354440000000     0.715580000000     0.0367515  
H186     H      0.458470000000     0.312940000000     0.660600000000     0.0370984  
H187     H      0.412610000000     0.278720000000     0.612840000000     0.036938   
H188     H      0.392100000000     0.385230000000     0.677620000000     0.0438889  
H189     H      0.341710000000     0.345120000000     0.700790000000     0.0432136  
H190     H      0.346110000000     0.351070000000     0.629820000000     0.0377812  
H191     H      0.463000000000     0.318810000000     0.589640000000     0.0427989  
H192     H      0.390640000000     0.309430000000     0.574690000000     0.0354427  
N17      N      0.121080000000     0.060530000000     0.633210000000    -0.166246   
N18      N      0.183600000000     0.103480000000     0.650630000000    -0.165089   
N19      N      0.181750000000     0.103150000000     0.886050000000    -0.16575    
N20      N      0.117710000000     0.060980000000     0.897690000000    -0.165772   
N21      N      0.172490000000     0.308390000000     0.669290000000    -0.166076   
N22      N      0.132330000000     0.355650000000     0.613620000000    -0.166154   
N23      N      0.434000000000     0.060530000000     0.637900000000    -0.165569   
N24      N      0.371010000000     0.103380000000     0.653220000000    -0.165129   
N25      N      0.429350000000     0.354560000000     0.904530000000    -0.165994   
N26      N      0.369770000000     0.309380000000     0.887270000000    -0.165674   
N27      N      0.367580000000     0.103110000000     0.890440000000    -0.165859   
N28      N      0.431460000000     0.060800000000     0.900860000000    -0.166145   
N29      N      0.119760000000     0.354700000000     0.900360000000    -0.165072   
N30      N      0.179500000000     0.309400000000     0.882300000000    -0.165331   
N31      N      0.372620000000     0.309430000000     0.656310000000    -0.1661     
N32      N      0.431940000000     0.354530000000     0.633890000000    -0.165057   
O65      O      0.443850000000     0.405680000000     0.621380000000    -0.376402   
O66      O      0.481640000000     0.370620000000     0.575870000000    -0.373626   
O67      O      0.443310000000     0.009700000000     0.913480000000    -0.379091   
O68      O      0.480140000000     0.044780000000     0.960180000000    -0.373468   
O69      O      0.440900000000     0.405770000000     0.916990000000    -0.37464    
O70      O      0.479690000000     0.370760000000     0.961050000000    -0.374273   
O71      O      0.446140000000     0.009450000000     0.625100000000    -0.376856   
O72      O      0.481700000000     0.044660000000     0.577000000000    -0.372684   
O73      O      0.392510000000     0.458740000000     0.607130000000    -0.341894   
O74      O      0.475080000000     0.456220000000     0.695770000000    -0.529028   
O75      O      0.389490000000     0.459320000000     0.941010000000    -0.523987   
O76      O      0.464600000000     0.456260000000     0.841660000000    -0.353998   
O77      O      0.463980000000     0.428400000000     0.519380000000    -0.498327   
O78      O      0.464080000000     0.486900000000     0.519580000000    -0.632531   
O79      O      0.108650000000     0.009540000000     0.620570000000    -0.381364   
O80      O      0.071880000000     0.044820000000     0.574200000000    -0.372621   
O81      O      0.108050000000     0.405920000000     0.913120000000    -0.374599   
O82      O      0.069820000000     0.370810000000     0.957760000000    -0.371284   
O83      O      0.105520000000     0.009870000000     0.909760000000    -0.378628   
O84      O      0.069830000000     0.044920000000     0.958130000000    -0.372455   
O85      O      0.115790000000     0.406380000000     0.608250000000    -0.373162   
O86      O      0.075480000000     0.370960000000     0.567810000000    -0.373964   
O87      O      0.161600000000     0.461040000000     0.601830000000    -0.519428   
O88      O      0.082160000000     0.453310000000     0.692150000000    -0.360666   
O89      O      0.159220000000     0.458920000000     0.927420000000    -0.340671   
O90      O      0.076790000000     0.456720000000     0.838470000000    -0.531125   
O91      O      0.087650000000     0.487000000000     0.514950000000    -0.633615   
O92      O      0.087320000000     0.428770000000     0.514680000000    -0.497243   
O93      O      0.027430000000     0.487580000000     0.598830000000    -0.500453   
O94      O      0.024130000000     0.428160000000     0.935390000000    -0.633198   
O95      O      0.027670000000     0.427690000000     0.598920000000    -0.632577   
O96      O      0.024000000000     0.487650000000     0.935800000000    -0.499226   
O97      O      0.358800000000     0.258160000000     0.873960000000    -0.376488   
O98      O      0.320900000000     0.293190000000     0.828550000000    -0.37438    
O99      O      0.358410000000     0.154450000000     0.665290000000    -0.371459   
O100     O      0.322110000000     0.119260000000     0.712490000000    -0.37198    
O101     O      0.360420000000     0.258290000000     0.668420000000    -0.381336   
O102     O      0.322210000000     0.293360000000     0.713290000000    -0.374107   
O103     O      0.356390000000     0.154230000000     0.876990000000    -0.376202   
O104     O      0.320260000000     0.119170000000     0.829320000000    -0.373017   
O105     O      0.411370000000     0.204830000000     0.852040000000    -0.348984   
O106     O      0.333260000000     0.207510000000     0.947410000000    -0.527754   
O107     O      0.411590000000     0.205220000000     0.689110000000    -0.522546   
O108     O      0.334360000000     0.206860000000     0.592840000000    -0.351736   
O109     O      0.338380000000     0.235580000000     0.770780000000    -0.499234   
O110     O      0.338210000000     0.177020000000     0.770610000000    -0.63238    
O111     O      0.194410000000     0.154240000000     0.874540000000    -0.378912   
O112     O      0.230720000000     0.119160000000     0.827050000000    -0.372406   
O113     O      0.188670000000     0.257600000000     0.675510000000    -0.376408   
O114     O      0.228420000000     0.293020000000     0.716900000000    -0.374354   
O115     O      0.195720000000     0.154490000000     0.663740000000    -0.375584   
O116     O      0.231830000000     0.119210000000     0.710980000000    -0.371886   
O117     O      0.191780000000     0.258190000000     0.870510000000    -0.372011   
O118     O      0.230770000000     0.293260000000     0.826950000000    -0.370815   
O119     O      0.141360000000     0.204920000000     0.852740000000    -0.521159   
O120     O      0.219940000000     0.207730000000     0.947120000000    -0.360625   
O121     O      0.142550000000     0.203370000000     0.676910000000    -0.336186   
O122     O      0.226090000000     0.210300000000     0.593500000000    -0.532722   
O123     O      0.214540000000     0.177050000000     0.769280000000    -0.633617   
O124     O      0.214940000000     0.235270000000     0.769490000000    -0.495971   
O125     O      0.275980000000     0.176390000000     0.851440000000    -0.497635   
O126     O      0.276950000000     0.236280000000     0.688240000000    -0.632374   
O127     O      0.275910000000     0.235830000000     0.851810000000    -0.63338    
O128     O      0.277130000000     0.176410000000     0.688380000000    -0.495144   
Zr13     Zr     0.466850000000     0.457560000000     0.599660000000     1.3738     
Zr14     Zr     0.463300000000     0.457760000000     0.939300000000     1.37441    
Zr15     Zr     0.088080000000     0.457750000000     0.595070000000     1.37452    
Zr16     Zr     0.084860000000     0.457900000000     0.934610000000     1.37457    
Zr17     Zr     0.025840000000     0.399750000000     0.516890000000     1.37763    
Zr18     Zr     0.025820000000     0.015940000000     0.517380000000     1.37219    
Zr19     Zr     0.336810000000     0.206200000000     0.850820000000     1.37455    
Zr20     Zr     0.337770000000     0.206370000000     0.690490000000     1.37254    
Zr21     Zr     0.215140000000     0.206170000000     0.849660000000     1.37385    
Zr22     Zr     0.216440000000     0.206270000000     0.689130000000     1.37527    
Zr23     Zr     0.276500000000     0.264230000000     0.770280000000     1.37827    
Zr24     Zr     0.276370000000     0.148070000000     0.769870000000     1.37659    
C97      C      0.453290000000     0.877770000000     0.109540000000     0.389848   
C98      C      0.452540000000     0.537580000000     0.425560000000     0.391384   
C99      C      0.450770000000     0.877880000000     0.428350000000     0.393256   
C100     C      0.454850000000     0.537380000000     0.112600000000     0.389539   
C101     C      0.099630000000     0.537480000000     0.108590000000     0.390496   
C102     C      0.098390000000     0.877990000000     0.424550000000     0.390334   
C103     C      0.096760000000     0.537760000000     0.422560000000     0.389948   
C104     C      0.106780000000     0.878470000000     0.096200000000     0.396265   
C105     C      0.349060000000     0.786060000000     0.362390000000     0.391447   
C106     C      0.349580000000     0.626530000000     0.177710000000     0.390585   
C107     C      0.350930000000     0.786200000000     0.180160000000     0.390463   
C108     C      0.347200000000     0.626350000000     0.364810000000     0.392913   
C109     C      0.203230000000     0.626350000000     0.361880000000     0.390762   
C110     C      0.197610000000     0.785530000000     0.187600000000     0.394366   
C111     C      0.204620000000     0.626550000000     0.175870000000     0.39057    
C112     C      0.201530000000     0.786100000000     0.359160000000     0.391536   
C113     C      0.152760000000     0.609800000000     0.108770000000    -0.0138478  
C114     C      0.192010000000     0.570900000000     0.161820000000    -0.0124557  
C115     C      0.112750000000     0.593120000000     0.121830000000    -0.0118251  
C116     C      0.152050000000     0.554180000000     0.174920000000    -0.0125691  
C117     C      0.149540000000     0.554970000000     0.357000000000    -0.0132756  
C118     C      0.109800000000     0.593510000000     0.410130000000    -0.0124229  
C119     C      0.189570000000     0.570620000000     0.373420000000    -0.0120766  
C120     C      0.149790000000     0.609210000000     0.426560000000    -0.0126966  
C121     C      0.127430000000     0.823890000000     0.094560000000    -0.0112415  
C122     C      0.170650000000     0.862780000000     0.142270000000    -0.0115601  
C123     C      0.134310000000     0.801240000000     0.140310000000    -0.0135339  
C124     C      0.177520000000     0.840190000000     0.188120000000    -0.0120751  
C125     C      0.362800000000     0.570820000000     0.165040000000    -0.0119652  
C126     C      0.402360000000     0.609550000000     0.111980000000    -0.0125754  
C127     C      0.402790000000     0.554380000000     0.179320000000    -0.0135623  
C128     C      0.442300000000     0.593090000000     0.126370000000    -0.0125399  
C129     C      0.358580000000     0.841790000000     0.378780000000    -0.0124826  
C130     C      0.402210000000     0.803440000000     0.427060000000    -0.0126037  
C131     C      0.396700000000     0.860550000000     0.365000000000    -0.0110376  
C132     C      0.440390000000     0.822130000000     0.413310000000    -0.0115026  
C133     C      0.439630000000     0.593330000000     0.412990000000    -0.0122637  
C134     C      0.398980000000     0.554770000000     0.361080000000    -0.0130685  
C135     C      0.399910000000     0.609090000000     0.430420000000    -0.0122021  
C136     C      0.359310000000     0.570580000000     0.378550000000    -0.0119107  
C137     C      0.146890000000     0.803340000000     0.421830000000    -0.0111181  
C138     C      0.190420000000     0.841850000000     0.373660000000    -0.0113487  
C139     C      0.108720000000     0.822270000000     0.408680000000    -0.0124636  
C140     C      0.152170000000     0.860730000000     0.360570000000    -0.0131744  
C141     C      0.442370000000     0.822060000000     0.124660000000    -0.0126794  
C142     C      0.401090000000     0.860690000000     0.175800000000    -0.0133012  
C143     C      0.403570000000     0.803250000000     0.114520000000    -0.0114456  
C144     C      0.362260000000     0.841910000000     0.165670000000    -0.0116167  
H193     H      0.440290000000     0.500080000000     0.020340000000     0.193943   
H194     H      0.023530000000     0.914800000000     0.404510000000     0.196191   
H195     H      0.111440000000     0.500130000000     0.014320000000     0.194746   
H196     H      0.028570000000     0.914100000000     0.129510000000     0.196984   
H197     H      0.487310000000     0.970130000000     0.331480000000     0.13634    
H198     H      0.078410000000     0.975470000000     0.317990000000     0.202006   
H199     H      0.168980000000     0.953820000000     0.463970000000     0.127973   
H200     H      0.177690000000     0.966350000000     0.070640000000     0.18532    
H201     H      0.065960000000     0.971450000000     0.203110000000     0.137705   
H202     H      0.478370000000     0.936830000000     0.214000000000     0.19999    
H203     H      0.382650000000     0.950500000000     0.072460000000     0.131482   
H204     H      0.375460000000     0.969590000000     0.470050000000     0.185852   
H205     H      0.174950000000     0.957270000000     0.135810000000     0.200523   
H206     H      0.475670000000     0.975100000000     0.216020000000     0.202913   
H207     H      0.373940000000     0.950060000000     0.412290000000     0.201616   
H208     H      0.071420000000     0.937530000000     0.320450000000     0.19793    
H209     H      0.361970000000     0.663810000000     0.270930000000     0.195602   
H210     H      0.276830000000     0.749910000000     0.157710000000     0.190901   
H211     H      0.190730000000     0.663920000000     0.268930000000     0.192847   
H212     H      0.275640000000     0.749210000000     0.382670000000     0.195622   
H213     H      0.319940000000     0.726130000000     0.083670000000     0.129734   
H214     H      0.237590000000     0.693300000000     0.073720000000     0.204414   
H215     H      0.131480000000     0.701830000000     0.213800000000     0.124581   
H216     H      0.125950000000     0.699850000000     0.320870000000     0.183861   
H217     H      0.239440000000     0.691160000000     0.456370000000     0.139266   
H218     H      0.314150000000     0.721090000000     0.465080000000     0.192109   
H219     H      0.419660000000     0.717230000000     0.320600000000     0.134451   
H220     H      0.426480000000     0.696780000000     0.219180000000     0.186654   
H221     H      0.127220000000     0.709280000000     0.385940000000     0.200375   
H222     H      0.351230000000     0.694650000000     0.468510000000     0.209598   
H223     H      0.426280000000     0.712810000000     0.158170000000     0.199965   
H224     H      0.218800000000     0.728980000000     0.075020000000     0.200174   
H225     H      0.206340000000     0.560270000000     0.125860000000     0.0371947  
H226     H      0.164590000000     0.601620000000     0.069460000000     0.0371398  
H227     H      0.091460000000     0.596410000000     0.087510000000     0.043065   
H228     H      0.213440000000     0.567540000000     0.195980000000     0.0429577  
H229     H      0.159020000000     0.529380000000     0.179100000000     0.0392592  
H230     H      0.140300000000     0.562300000000     0.214310000000     0.0354796  
H231     H      0.145850000000     0.634600000000     0.104440000000     0.0452768  
H232     H      0.098340000000     0.603810000000     0.157660000000     0.0377453  
H233     H      0.097220000000     0.604990000000     0.373860000000     0.0361089  
H234     H      0.139230000000     0.564290000000     0.317730000000     0.0355756  
H235     H      0.212130000000     0.567490000000     0.340480000000     0.0435613  
H236     H      0.087140000000     0.596690000000     0.442920000000     0.0429127  
H237     H      0.143550000000     0.634030000000     0.432160000000     0.0404082  
H238     H      0.160020000000     0.599990000000     0.465930000000     0.0370665  
H239     H      0.155700000000     0.530160000000     0.351190000000     0.0426562  
H240     H      0.202220000000     0.559070000000     0.409570000000     0.0385486  
H241     H      0.196740000000     0.861450000000     0.113650000000     0.0371278  
H242     H      0.150080000000     0.819440000000     0.062150000000     0.0362853  
H243     H      0.134720000000     0.777890000000     0.122490000000     0.0431915  
H244     H      0.170480000000     0.886170000000     0.159900000000     0.0397541  
H245     H      0.208600000000     0.844610000000     0.204610000000     0.0429636  
H246     H      0.154970000000     0.844750000000     0.220600000000     0.0380604  
H247     H      0.096420000000     0.819450000000     0.077850000000     0.042973   
H248     H      0.108110000000     0.802410000000     0.168780000000     0.0395359  
H249     H      0.391170000000     0.601060000000     0.072570000000     0.0375282  
H250     H      0.349010000000     0.559860000000     0.129050000000     0.038915   
H251     H      0.396100000000     0.529580000000     0.184130000000     0.0438818  
H252     H      0.409120000000     0.634350000000     0.107330000000     0.0417196  
H253     H      0.464260000000     0.596360000000     0.092790000000     0.0428812  
H254     H      0.455950000000     0.603970000000     0.162530000000     0.0364604  
H255     H      0.341020000000     0.567630000000     0.198840000000     0.0436222  
H256     H      0.414080000000     0.562930000000     0.218650000000     0.0361289  
H257     H      0.390980000000     0.810110000000     0.467540000000     0.0364674  
H258     H      0.344530000000     0.850960000000     0.416130000000     0.0368604  
H259     H      0.387650000000     0.885070000000     0.363410000000     0.0389615  
H260     H      0.411180000000     0.778910000000     0.428950000000     0.0424459  
H261     H      0.462850000000     0.818990000000     0.446370000000     0.0433106  
H262     H      0.454580000000     0.812860000000     0.376120000000     0.03786    
H263     H      0.335960000000     0.844990000000     0.345950000000     0.0432656  
H264     H      0.407800000000     0.854010000000     0.324380000000     0.0374172  
H265     H      0.408660000000     0.563980000000     0.321490000000     0.0368002  
H266     H      0.451650000000     0.604760000000     0.376370000000     0.0384059  
H267     H      0.406130000000     0.633890000000     0.436170000000     0.0414644  
H268     H      0.392660000000     0.529960000000     0.355610000000     0.0413536  
H269     H      0.336000000000     0.567360000000     0.346570000000     0.0433032  
H270     H      0.347380000000     0.559230000000     0.415310000000     0.0366494  
H271     H      0.462800000000     0.596520000000     0.445170000000     0.0434208  
H272     H      0.390130000000     0.599760000000     0.469900000000     0.0366799  
H273     H      0.204950000000     0.850990000000     0.410700000000     0.0381765  
H274     H      0.158160000000     0.809580000000     0.462480000000     0.0362896  
H275     H      0.086390000000     0.819020000000     0.441840000000     0.042989   
H276     H      0.212550000000     0.845030000000     0.340240000000     0.0435688  
H277     H      0.161230000000     0.885250000000     0.359160000000     0.0441559  
H278     H      0.140780000000     0.854380000000     0.320040000000     0.0368123  
H279     H      0.137750000000     0.778840000000     0.422980000000     0.0392069  
H280     H      0.094340000000     0.813230000000     0.371450000000     0.0372427  
H281     H      0.414090000000     0.854450000000     0.215580000000     0.0367322  
H282     H      0.458470000000     0.812940000000     0.160600000000     0.0370957  
H283     H      0.412610000000     0.778720000000     0.112840000000     0.0369162  
H284     H      0.392100000000     0.885230000000     0.177630000000     0.0439134  
H285     H      0.341710000000     0.845120000000     0.200790000000     0.0432847  
H286     H      0.346110000000     0.851080000000     0.129820000000     0.0378482  
H287     H      0.463000000000     0.818810000000     0.089650000000     0.0427974  
H288     H      0.390640000000     0.809430000000     0.074690000000     0.0354285  
N33      N      0.121080000000     0.560530000000     0.133220000000    -0.16619    
N34      N      0.183610000000     0.603480000000     0.150630000000    -0.1651     
N35      N      0.181750000000     0.603150000000     0.386050000000    -0.165748   
N36      N      0.117710000000     0.560980000000     0.397690000000    -0.165784   
N37      N      0.172490000000     0.808390000000     0.169280000000    -0.166111   
N38      N      0.132330000000     0.855660000000     0.113630000000    -0.166225   
N39      N      0.434000000000     0.560530000000     0.137900000000    -0.165534   
N40      N      0.371010000000     0.603380000000     0.153230000000    -0.165143   
N41      N      0.429350000000     0.854560000000     0.404530000000    -0.16598    
N42      N      0.369770000000     0.809380000000     0.387270000000    -0.1657     
N43      N      0.367580000000     0.603110000000     0.390440000000    -0.165831   
N44      N      0.431460000000     0.560810000000     0.400870000000    -0.166037   
N45      N      0.119760000000     0.854700000000     0.400360000000    -0.165071   
N46      N      0.179500000000     0.809410000000     0.382290000000    -0.165293   
N47      N      0.372620000000     0.809430000000     0.156300000000    -0.166061   
N48      N      0.431930000000     0.854530000000     0.133890000000    -0.16503    
O129     O      0.443850000000     0.905680000000     0.121380000000    -0.376417   
O130     O      0.481640000000     0.870620000000     0.075870000000    -0.37363    
O131     O      0.443310000000     0.509700000000     0.413480000000    -0.378414   
O132     O      0.480140000000     0.544780000000     0.460180000000    -0.373478   
O133     O      0.440900000000     0.905770000000     0.416980000000    -0.374678   
O134     O      0.479690000000     0.870760000000     0.461050000000    -0.374312   
O135     O      0.446140000000     0.509450000000     0.125100000000    -0.376091   
O136     O      0.481700000000     0.544660000000     0.077000000000    -0.372714   
O137     O      0.392510000000     0.958740000000     0.107130000000    -0.341629   
O138     O      0.475070000000     0.956220000000     0.195780000000    -0.528936   
O139     O      0.389480000000     0.959320000000     0.441010000000    -0.524017   
O140     O      0.464600000000     0.956270000000     0.341660000000    -0.353948   
O141     O      0.463980000000     0.928410000000     0.019380000000    -0.498498   
O142     O      0.464070000000     0.986900000000     0.019570000000    -0.631126   
O143     O      0.108650000000     0.509540000000     0.120570000000    -0.380587   
O144     O      0.071880000000     0.544820000000     0.074200000000    -0.372631   
O145     O      0.108050000000     0.905920000000     0.413120000000    -0.374648   
O146     O      0.069820000000     0.870810000000     0.457760000000    -0.371314   
O147     O      0.105520000000     0.509870000000     0.409760000000    -0.377751   
O148     O      0.069830000000     0.544920000000     0.458130000000    -0.372473   
O149     O      0.115790000000     0.906380000000     0.108240000000    -0.373228   
O150     O      0.075480000000     0.870960000000     0.067810000000    -0.373999   
O151     O      0.161600000000     0.961040000000     0.101830000000    -0.519311   
O152     O      0.082160000000     0.953300000000     0.192150000000    -0.360481   
O153     O      0.159220000000     0.958920000000     0.427420000000    -0.340297   
O154     O      0.076790000000     0.956720000000     0.338470000000    -0.531278   
O155     O      0.087650000000     0.986990000000     0.014950000000    -0.631776   
O156     O      0.087320000000     0.928770000000     0.014680000000    -0.49739    
O157     O      0.027430000000     0.987590000000     0.098820000000    -0.499699   
O158     O      0.024120000000     0.928160000000     0.435390000000    -0.633492   
O159     O      0.027670000000     0.927690000000     0.098920000000    -0.632585   
O160     O      0.024000000000     0.987650000000     0.435800000000    -0.498504   
O161     O      0.358800000000     0.758160000000     0.373950000000    -0.376524   
O162     O      0.320900000000     0.793190000000     0.328550000000    -0.374386   
O163     O      0.358410000000     0.654450000000     0.165290000000    -0.371466   
O164     O      0.322110000000     0.619260000000     0.212490000000    -0.371955   
O165     O      0.360420000000     0.758290000000     0.168420000000    -0.38133    
O166     O      0.322210000000     0.793360000000     0.213290000000    -0.374107   
O167     O      0.356390000000     0.654230000000     0.376990000000    -0.376179   
O168     O      0.320260000000     0.619170000000     0.329310000000    -0.372956   
O169     O      0.411370000000     0.704830000000     0.352030000000    -0.349096   
O170     O      0.333260000000     0.707510000000     0.447420000000    -0.527691   
O171     O      0.411590000000     0.705220000000     0.189100000000    -0.522679   
O172     O      0.334360000000     0.706870000000     0.092840000000    -0.351902   
O173     O      0.338380000000     0.735580000000     0.270780000000    -0.499243   
O174     O      0.338210000000     0.677010000000     0.270610000000    -0.632477   
O175     O      0.194410000000     0.654240000000     0.374540000000    -0.378928   
O176     O      0.230720000000     0.619160000000     0.327050000000    -0.372394   
O177     O      0.188670000000     0.757600000000     0.175510000000    -0.376281   
O178     O      0.228420000000     0.793020000000     0.216900000000    -0.374354   
O179     O      0.195720000000     0.654480000000     0.163740000000    -0.375795   
O180     O      0.231830000000     0.619200000000     0.210980000000    -0.371851   
O181     O      0.191780000000     0.758190000000     0.370510000000    -0.371969   
O182     O      0.230770000000     0.793260000000     0.326940000000    -0.370703   
O183     O      0.141360000000     0.704930000000     0.352740000000    -0.521352   
O184     O      0.219940000000     0.707730000000     0.447110000000    -0.360675   
O185     O      0.142550000000     0.703370000000     0.176910000000    -0.336202   
O186     O      0.226090000000     0.710300000000     0.093500000000    -0.532724   
O187     O      0.214540000000     0.677050000000     0.269280000000    -0.63363    
O188     O      0.214940000000     0.735270000000     0.269490000000    -0.49596    
O189     O      0.275980000000     0.676390000000     0.351440000000    -0.497649   
O190     O      0.276950000000     0.736280000000     0.188240000000    -0.632379   
O191     O      0.275910000000     0.735840000000     0.351800000000    -0.633405   
O192     O      0.277130000000     0.676410000000     0.188380000000    -0.495156   
Zr25     Zr     0.466850000000     0.957560000000     0.099660000000     1.37439    
Zr26     Zr     0.463290000000     0.957760000000     0.439300000000     1.37504    
Zr27     Zr     0.088080000000     0.957750000000     0.095070000000     1.37522    
Zr28     Zr     0.084860000000     0.957900000000     0.434600000000     1.3752     
Zr29     Zr     0.025840000000     0.899750000000     0.016890000000     1.37751    
Zr30     Zr     0.025820000000     0.515940000000     0.017380000000     1.37495    
Zr31     Zr     0.336810000000     0.706200000000     0.350820000000     1.37436    
Zr32     Zr     0.337770000000     0.706370000000     0.190490000000     1.37249    
Zr33     Zr     0.215140000000     0.706170000000     0.349660000000     1.37383    
Zr34     Zr     0.216440000000     0.706270000000     0.189130000000     1.3752     
Zr35     Zr     0.276500000000     0.764230000000     0.270280000000     1.37839    
Zr36     Zr     0.276370000000     0.648070000000     0.269870000000     1.37663    
C145     C      0.453290000000     0.877770000000     0.609540000000     0.389854   
C146     C      0.452540000000     0.537580000000     0.925560000000     0.391538   
C147     C      0.450770000000     0.877880000000     0.928350000000     0.393296   
C148     C      0.454850000000     0.537380000000     0.612600000000     0.389542   
C149     C      0.099630000000     0.537480000000     0.608590000000     0.390525   
C150     C      0.098390000000     0.877990000000     0.924550000000     0.390331   
C151     C      0.096760000000     0.537760000000     0.922560000000     0.389946   
C152     C      0.106780000000     0.878480000000     0.596200000000     0.396327   
C153     C      0.349060000000     0.786060000000     0.862390000000     0.391434   
C154     C      0.349580000000     0.626530000000     0.677710000000     0.390557   
C155     C      0.350930000000     0.786200000000     0.680160000000     0.390493   
C156     C      0.347200000000     0.626350000000     0.864810000000     0.392972   
C157     C      0.203230000000     0.626350000000     0.861880000000     0.390764   
C158     C      0.197610000000     0.785530000000     0.687600000000     0.394385   
C159     C      0.204620000000     0.626550000000     0.675870000000     0.390459   
C160     C      0.201530000000     0.786110000000     0.859150000000     0.39163    
C161     C      0.152760000000     0.609800000000     0.608770000000    -0.0138575  
C162     C      0.192010000000     0.570900000000     0.661830000000    -0.0124645  
C163     C      0.112750000000     0.593120000000     0.621820000000    -0.0118333  
C164     C      0.152050000000     0.554180000000     0.674920000000    -0.0125842  
C165     C      0.149540000000     0.554970000000     0.857000000000    -0.013285   
C166     C      0.109800000000     0.593500000000     0.910130000000    -0.0123272  
C167     C      0.189570000000     0.570620000000     0.873420000000    -0.0120443  
C168     C      0.149790000000     0.609220000000     0.926560000000    -0.0127897  
C169     C      0.127430000000     0.823900000000     0.594550000000    -0.0112035  
C170     C      0.170650000000     0.862790000000     0.642270000000    -0.0116318  
C171     C      0.134310000000     0.801240000000     0.640310000000    -0.0135726  
C172     C      0.177520000000     0.840200000000     0.688120000000    -0.0121189  
C173     C      0.362800000000     0.570820000000     0.665040000000    -0.0119801  
C174     C      0.402360000000     0.609550000000     0.611980000000    -0.0125682  
C175     C      0.402790000000     0.554380000000     0.679320000000    -0.0135638  
C176     C      0.442300000000     0.593090000000     0.626370000000    -0.0125431  
C177     C      0.358580000000     0.841790000000     0.878780000000    -0.0124997  
C178     C      0.402210000000     0.803440000000     0.927070000000    -0.012629   
C179     C      0.396700000000     0.860540000000     0.865000000000    -0.010996   
C180     C      0.440390000000     0.822130000000     0.913310000000    -0.0114846  
C181     C      0.439630000000     0.593330000000     0.913000000000    -0.0123391  
C182     C      0.398980000000     0.554770000000     0.861080000000    -0.0129848  
C183     C      0.399910000000     0.609090000000     0.930420000000    -0.0121789  
C184     C      0.359310000000     0.570580000000     0.878550000000    -0.0119191  
C185     C      0.146890000000     0.803340000000     0.921830000000    -0.0110683  
C186     C      0.190420000000     0.841850000000     0.873660000000    -0.0114318  
C187     C      0.108720000000     0.822270000000     0.908680000000    -0.0124489  
C188     C      0.152170000000     0.860730000000     0.860570000000    -0.013147   
C189     C      0.442370000000     0.822070000000     0.624660000000    -0.012573   
C190     C      0.401090000000     0.860690000000     0.675800000000    -0.013351   
C191     C      0.403570000000     0.803250000000     0.614520000000    -0.0115119  
C192     C      0.362260000000     0.841900000000     0.665670000000    -0.0115044  
H289     H      0.440290000000     0.500080000000     0.520340000000     0.193951   
H290     H      0.023540000000     0.914790000000     0.904510000000     0.196036   
H291     H      0.111440000000     0.500130000000     0.514320000000     0.194748   
H292     H      0.028570000000     0.914100000000     0.629500000000     0.197111   
H293     H      0.487310000000     0.970130000000     0.831480000000     0.136345   
H294     H      0.078410000000     0.975470000000     0.817980000000     0.201914   
H295     H      0.168980000000     0.953830000000     0.963970000000     0.128013   
H296     H      0.177690000000     0.966350000000     0.570640000000     0.185331   
H297     H      0.065960000000     0.971450000000     0.703120000000     0.137693   
H298     H      0.478370000000     0.936830000000     0.714010000000     0.199838   
H299     H      0.382650000000     0.950490000000     0.572450000000     0.131355   
H300     H      0.375460000000     0.969590000000     0.970050000000     0.185861   
H301     H      0.174950000000     0.957270000000     0.635810000000     0.200529   
H302     H      0.475670000000     0.975100000000     0.716020000000     0.202797   
H303     H      0.373940000000     0.950060000000     0.912290000000     0.201618   
H304     H      0.071420000000     0.937530000000     0.820450000000     0.197891   
H305     H      0.361970000000     0.663800000000     0.770920000000     0.195445   
H306     H      0.276830000000     0.749910000000     0.657710000000     0.190906   
H307     H      0.190730000000     0.663920000000     0.768920000000     0.19285    
H308     H      0.275640000000     0.749210000000     0.882670000000     0.195757   
H309     H      0.319940000000     0.726130000000     0.583660000000     0.129581   
H310     H      0.237590000000     0.693300000000     0.573720000000     0.204428   
H311     H      0.131480000000     0.701830000000     0.713800000000     0.124587   
H312     H      0.125950000000     0.699840000000     0.820860000000     0.183687   
H313     H      0.239440000000     0.691160000000     0.956370000000     0.139274   
H314     H      0.314150000000     0.721080000000     0.965080000000     0.192192   
H315     H      0.419660000000     0.717230000000     0.820600000000     0.134365   
H316     H      0.426480000000     0.696780000000     0.719190000000     0.18663    
H317     H      0.127220000000     0.709280000000     0.885940000000     0.200328   
H318     H      0.351230000000     0.694650000000     0.968510000000     0.209567   
H319     H      0.426280000000     0.712810000000     0.658170000000     0.19985    
H320     H      0.218800000000     0.728980000000     0.575020000000     0.200183   
H321     H      0.206340000000     0.560270000000     0.625860000000     0.0372017  
H322     H      0.164590000000     0.601620000000     0.569460000000     0.0371558  
H323     H      0.091460000000     0.596410000000     0.587520000000     0.0430816  
H324     H      0.213440000000     0.567540000000     0.695980000000     0.0429544  
H325     H      0.159020000000     0.529380000000     0.679100000000     0.0392656  
H326     H      0.140300000000     0.562300000000     0.714310000000     0.0354826  
H327     H      0.145850000000     0.634600000000     0.604450000000     0.0452859  
H328     H      0.098340000000     0.603810000000     0.657660000000     0.0377455  
H329     H      0.097220000000     0.604990000000     0.873870000000     0.0360838  
H330     H      0.139230000000     0.564290000000     0.817730000000     0.0355792  
H331     H      0.212130000000     0.567480000000     0.840480000000     0.0435429  
H332     H      0.087140000000     0.596690000000     0.942910000000     0.0428911  
H333     H      0.143550000000     0.634030000000     0.932160000000     0.0404407  
H334     H      0.160020000000     0.599990000000     0.965930000000     0.0370991  
H335     H      0.155700000000     0.530160000000     0.851190000000     0.0426618  
H336     H      0.202220000000     0.559070000000     0.909580000000     0.0385429  
H337     H      0.196740000000     0.861440000000     0.613650000000     0.0371586  
H338     H      0.150080000000     0.819440000000     0.562150000000     0.0362856  
H339     H      0.134720000000     0.777890000000     0.622490000000     0.0432041  
H340     H      0.170480000000     0.886170000000     0.659900000000     0.0397877  
H341     H      0.208600000000     0.844610000000     0.704610000000     0.0429813  
H342     H      0.154970000000     0.844750000000     0.720600000000     0.0380789  
H343     H      0.096420000000     0.819460000000     0.577860000000     0.042987   
H344     H      0.108110000000     0.802410000000     0.668780000000     0.0395477  
H345     H      0.391170000000     0.601060000000     0.572560000000     0.037532   
H346     H      0.349010000000     0.559860000000     0.629050000000     0.0389255  
H347     H      0.396100000000     0.529580000000     0.684130000000     0.0438816  
H348     H      0.409120000000     0.634340000000     0.607330000000     0.0417283  
H349     H      0.464260000000     0.596360000000     0.592790000000     0.0428896  
H350     H      0.455950000000     0.603970000000     0.662530000000     0.0364633  
H351     H      0.341020000000     0.567630000000     0.698840000000     0.0436232  
H352     H      0.414080000000     0.562920000000     0.718650000000     0.0361276  
H353     H      0.390980000000     0.810100000000     0.967540000000     0.0364892  
H354     H      0.344530000000     0.850960000000     0.916140000000     0.0368681  
H355     H      0.387650000000     0.885070000000     0.863410000000     0.038943   
H356     H      0.411180000000     0.778900000000     0.928950000000     0.042461   
H357     H      0.462850000000     0.818990000000     0.946370000000     0.0433158  
H358     H      0.454580000000     0.812860000000     0.876120000000     0.0378571  
H359     H      0.335960000000     0.844990000000     0.845960000000     0.0432735  
H360     H      0.407800000000     0.854010000000     0.824390000000     0.0374101  
H361     H      0.408660000000     0.563980000000     0.821480000000     0.0367757  
H362     H      0.451650000000     0.604760000000     0.876370000000     0.0384257  
H363     H      0.406130000000     0.633890000000     0.936170000000     0.0414666  
H364     H      0.392660000000     0.529960000000     0.855610000000     0.0413368  
H365     H      0.336000000000     0.567350000000     0.846570000000     0.0432943  
H366     H      0.347380000000     0.559230000000     0.915310000000     0.0366558  
H367     H      0.462800000000     0.596520000000     0.945170000000     0.0434367  
H368     H      0.390130000000     0.599760000000     0.969900000000     0.0366835  
H369     H      0.204950000000     0.850990000000     0.910700000000     0.0382056  
H370     H      0.158160000000     0.809580000000     0.962470000000     0.0362996  
H371     H      0.086390000000     0.819010000000     0.941850000000     0.0429782  
H372     H      0.212550000000     0.845020000000     0.840240000000     0.0435975  
H373     H      0.161230000000     0.885250000000     0.859160000000     0.0441539  
H374     H      0.140780000000     0.854380000000     0.820040000000     0.0368034  
H375     H      0.137750000000     0.778840000000     0.922990000000     0.0391992  
H376     H      0.094340000000     0.813230000000     0.871450000000     0.0372417  
H377     H      0.414090000000     0.854440000000     0.715580000000     0.036747   
H378     H      0.458470000000     0.812950000000     0.660600000000     0.0370741  
H379     H      0.412610000000     0.778720000000     0.612840000000     0.036937   
H380     H      0.392100000000     0.885230000000     0.677620000000     0.043931   
H381     H      0.341710000000     0.845120000000     0.700790000000     0.043254   
H382     H      0.346110000000     0.851080000000     0.629820000000     0.0378159  
H383     H      0.463000000000     0.818810000000     0.589640000000     0.0427693  
H384     H      0.390640000000     0.809430000000     0.574690000000     0.0354483  
N49      N      0.121080000000     0.560530000000     0.633210000000    -0.166202   
N50      N      0.183610000000     0.603480000000     0.650630000000    -0.165087   
N51      N      0.181750000000     0.603150000000     0.886050000000    -0.165737   
N52      N      0.117710000000     0.560980000000     0.897690000000    -0.165794   
N53      N      0.172490000000     0.808390000000     0.669290000000    -0.166114   
N54      N      0.132330000000     0.855660000000     0.613620000000    -0.166183   
N55      N      0.434000000000     0.560530000000     0.637900000000    -0.165531   
N56      N      0.371010000000     0.603380000000     0.653220000000    -0.16512    
N57      N      0.429350000000     0.854560000000     0.904530000000    -0.165996   
N58      N      0.369770000000     0.809380000000     0.887270000000    -0.165687   
N59      N      0.367580000000     0.603110000000     0.890440000000    -0.16584    
N60      N      0.431460000000     0.560800000000     0.900860000000    -0.166097   
N61      N      0.119760000000     0.854700000000     0.900360000000    -0.165073   
N62      N      0.179500000000     0.809400000000     0.882300000000    -0.165373   
N63      N      0.372620000000     0.809430000000     0.656310000000    -0.166088   
N64      N      0.431930000000     0.854530000000     0.633890000000    -0.165043   
O193     O      0.443850000000     0.905680000000     0.621380000000    -0.376422   
O194     O      0.481640000000     0.870620000000     0.575870000000    -0.37364    
O195     O      0.443310000000     0.509700000000     0.913480000000    -0.37843    
O196     O      0.480140000000     0.544770000000     0.960180000000    -0.373562   
O197     O      0.440900000000     0.905770000000     0.916990000000    -0.374705   
O198     O      0.479690000000     0.870760000000     0.961050000000    -0.374293   
O199     O      0.446140000000     0.509450000000     0.625100000000    -0.376086   
O200     O      0.481700000000     0.544660000000     0.577000000000    -0.372705   
O201     O      0.392510000000     0.958740000000     0.607130000000    -0.341498   
O202     O      0.475070000000     0.956220000000     0.695770000000    -0.528734   
O203     O      0.389480000000     0.959320000000     0.941010000000    -0.524017   
O204     O      0.464600000000     0.956270000000     0.841660000000    -0.353956   
O205     O      0.463980000000     0.928410000000     0.519380000000    -0.498489   
O206     O      0.464070000000     0.986900000000     0.519580000000    -0.631121   
O207     O      0.108650000000     0.509540000000     0.620570000000    -0.38059    
O208     O      0.071880000000     0.544820000000     0.574200000000    -0.372627   
O209     O      0.108050000000     0.905920000000     0.913120000000    -0.374632   
O210     O      0.069820000000     0.870810000000     0.957760000000    -0.37129    
O211     O      0.105520000000     0.509870000000     0.909760000000    -0.377729   
O212     O      0.069830000000     0.544920000000     0.958130000000    -0.372456   
O213     O      0.115790000000     0.906380000000     0.608250000000    -0.373328   
O214     O      0.075480000000     0.870960000000     0.567810000000    -0.373994   
O215     O      0.161600000000     0.961040000000     0.601830000000    -0.519308   
O216     O      0.082160000000     0.953300000000     0.692150000000    -0.360449   
O217     O      0.159220000000     0.958920000000     0.927420000000    -0.340326   
O218     O      0.076790000000     0.956720000000     0.838470000000    -0.531124   
O219     O      0.087650000000     0.986990000000     0.514950000000    -0.631737   
O220     O      0.087320000000     0.928760000000     0.514680000000    -0.497292   
O221     O      0.027430000000     0.987590000000     0.598830000000    -0.499652   
O222     O      0.024130000000     0.928160000000     0.935390000000    -0.63333    
O223     O      0.027670000000     0.927690000000     0.598920000000    -0.632716   
O224     O      0.024000000000     0.987650000000     0.935800000000    -0.498494   
O225     O      0.358800000000     0.758160000000     0.873960000000    -0.376571   
O226     O      0.320900000000     0.793190000000     0.828550000000    -0.374388   
O227     O      0.358410000000     0.654450000000     0.665290000000    -0.371454   
O228     O      0.322110000000     0.619260000000     0.712490000000    -0.371953   
O229     O      0.360420000000     0.758290000000     0.668420000000    -0.381336   
O230     O      0.322210000000     0.793360000000     0.713290000000    -0.374108   
O231     O      0.356390000000     0.654230000000     0.876990000000    -0.376118   
O232     O      0.320260000000     0.619170000000     0.829320000000    -0.372985   
O233     O      0.411370000000     0.704830000000     0.852040000000    -0.349006   
O234     O      0.333260000000     0.707510000000     0.947410000000    -0.527751   
O235     O      0.411590000000     0.705220000000     0.689110000000    -0.522545   
O236     O      0.334360000000     0.706860000000     0.592840000000    -0.351735   
O237     O      0.338380000000     0.735580000000     0.770780000000    -0.4993     
O238     O      0.338210000000     0.677010000000     0.770610000000    -0.632286   
O239     O      0.194410000000     0.654240000000     0.874540000000    -0.378932   
O240     O      0.230720000000     0.619160000000     0.827050000000    -0.372393   
O241     O      0.188670000000     0.757600000000     0.675510000000    -0.376289   
O242     O      0.228420000000     0.793020000000     0.716900000000    -0.374358   
O243     O      0.195720000000     0.654490000000     0.663740000000    -0.375724   
O244     O      0.231830000000     0.619210000000     0.710980000000    -0.371876   
O245     O      0.191780000000     0.758190000000     0.870510000000    -0.371877   
O246     O      0.230770000000     0.793260000000     0.826950000000    -0.370809   
O247     O      0.141360000000     0.704930000000     0.852740000000    -0.521152   
O248     O      0.219940000000     0.707730000000     0.947120000000    -0.360641   
O249     O      0.142550000000     0.703370000000     0.676910000000    -0.336196   
O250     O      0.226090000000     0.710300000000     0.593500000000    -0.532723   
O251     O      0.214540000000     0.677050000000     0.769280000000    -0.633621   
O252     O      0.214940000000     0.735270000000     0.769490000000    -0.495965   
O253     O      0.275980000000     0.676400000000     0.851440000000    -0.497655   
O254     O      0.276950000000     0.736280000000     0.688240000000    -0.632376   
O255     O      0.275910000000     0.735840000000     0.851810000000    -0.633516   
O256     O      0.277130000000     0.676410000000     0.688380000000    -0.495144   
Zr37     Zr     0.466850000000     0.957560000000     0.599660000000     1.37448    
Zr38     Zr     0.463290000000     0.957760000000     0.939300000000     1.37514    
Zr39     Zr     0.088080000000     0.957750000000     0.595070000000     1.37517    
Zr40     Zr     0.084860000000     0.957900000000     0.934610000000     1.37536    
Zr41     Zr     0.025840000000     0.899750000000     0.516890000000     1.37763    
Zr42     Zr     0.025820000000     0.515940000000     0.517380000000     1.37491    
Zr43     Zr     0.336810000000     0.706210000000     0.850820000000     1.37447    
Zr44     Zr     0.337770000000     0.706370000000     0.690490000000     1.37246    
Zr45     Zr     0.215140000000     0.706170000000     0.849660000000     1.37382    
Zr46     Zr     0.216440000000     0.706270000000     0.689130000000     1.37525    
Zr47     Zr     0.276500000000     0.764230000000     0.770280000000     1.37832    
Zr48     Zr     0.276370000000     0.648070000000     0.769870000000     1.37661    
C193     C      0.953290000000     0.377770000000     0.109540000000     0.38988    
C194     C      0.952540000000     0.037590000000     0.425560000000     0.391251   
C195     C      0.950770000000     0.377880000000     0.428350000000     0.393224   
C196     C      0.954850000000     0.037380000000     0.112600000000     0.389518   
C197     C      0.599620000000     0.037480000000     0.108590000000     0.390621   
C198     C      0.598400000000     0.377990000000     0.424550000000     0.390324   
C199     C      0.596760000000     0.037750000000     0.422560000000     0.390054   
C200     C      0.606780000000     0.378480000000     0.096200000000     0.396212   
C201     C      0.849060000000     0.286060000000     0.362390000000     0.391449   
C202     C      0.849580000000     0.126530000000     0.177710000000     0.390678   
C203     C      0.850940000000     0.286200000000     0.180160000000     0.390421   
C204     C      0.847200000000     0.126350000000     0.364810000000     0.39287    
C205     C      0.703230000000     0.126350000000     0.361880000000     0.390763   
C206     C      0.697610000000     0.285520000000     0.187600000000     0.394444   
C207     C      0.704620000000     0.126540000000     0.175870000000     0.39034    
C208     C      0.701530000000     0.286100000000     0.359160000000     0.391681   
C209     C      0.652760000000     0.109800000000     0.108770000000    -0.0138344  
C210     C      0.692010000000     0.070890000000     0.161820000000    -0.0125501  
C211     C      0.612750000000     0.093120000000     0.121830000000    -0.011853   
C212     C      0.652050000000     0.054180000000     0.174920000000    -0.0125475  
C213     C      0.649540000000     0.054960000000     0.357000000000    -0.0133415  
C214     C      0.609810000000     0.093510000000     0.410130000000    -0.012366   
C215     C      0.689570000000     0.070620000000     0.373420000000    -0.0120465  
C216     C      0.649790000000     0.109220000000     0.426560000000    -0.0127561  
C217     C      0.627430000000     0.323890000000     0.094560000000    -0.0111556  
C218     C      0.670650000000     0.362790000000     0.142270000000    -0.0116378  
C219     C      0.634310000000     0.301230000000     0.140310000000    -0.0136448  
C220     C      0.677520000000     0.340200000000     0.188120000000    -0.0121379  
C221     C      0.862800000000     0.070820000000     0.165040000000    -0.0119119  
C222     C      0.902360000000     0.109550000000     0.111980000000    -0.0125946  
C223     C      0.902780000000     0.054380000000     0.179320000000    -0.0136478  
C224     C      0.942300000000     0.093090000000     0.126370000000    -0.0125471  
C225     C      0.858580000000     0.341790000000     0.378780000000    -0.0124794  
C226     C      0.902210000000     0.303440000000     0.427060000000    -0.0125864  
C227     C      0.896700000000     0.360550000000     0.365000000000    -0.011029   
C228     C      0.940390000000     0.322130000000     0.413310000000    -0.0115291  
C229     C      0.939640000000     0.093340000000     0.412990000000    -0.0125078  
C230     C      0.898980000000     0.054770000000     0.361080000000    -0.013024   
C231     C      0.899910000000     0.109090000000     0.430420000000    -0.0120697  
C232     C      0.859310000000     0.070580000000     0.378550000000    -0.0119143  
C233     C      0.646890000000     0.303340000000     0.421830000000    -0.0110749  
C234     C      0.690420000000     0.341850000000     0.373660000000    -0.0113416  
C235     C      0.608720000000     0.322270000000     0.408680000000    -0.0124686  
C236     C      0.652170000000     0.360730000000     0.360570000000    -0.0131684  
C237     C      0.942370000000     0.322060000000     0.124660000000    -0.0127053  
C238     C      0.901090000000     0.360690000000     0.175800000000    -0.0133108  
C239     C      0.903570000000     0.303250000000     0.114520000000    -0.0114007  
C240     C      0.862260000000     0.341910000000     0.165670000000    -0.0116429  
H385     H      0.940290000000     0.000070000000     0.020340000000     0.192737   
H386     H      0.523530000000     0.414800000000     0.404510000000     0.196383   
H387     H      0.611440000000     0.000140000000     0.014320000000     0.193151   
H388     H      0.528570000000     0.414100000000     0.129510000000     0.197163   
H389     H      0.987310000000     0.470130000000     0.331480000000     0.13626    
H390     H      0.578410000000     0.475470000000     0.317990000000     0.201829   
H391     H      0.668980000000     0.453820000000     0.463970000000     0.127851   
H392     H      0.677690000000     0.466350000000     0.070640000000     0.185003   
H393     H      0.565960000000     0.471450000000     0.203110000000     0.13782    
H394     H      0.978370000000     0.436830000000     0.214000000000     0.20022    
H395     H      0.882650000000     0.450490000000     0.072460000000     0.131351   
H396     H      0.875460000000     0.469580000000     0.470050000000     0.185599   
H397     H      0.674950000000     0.457270000000     0.135810000000     0.200284   
H398     H      0.975670000000     0.475090000000     0.216020000000     0.202951   
H399     H      0.873940000000     0.450060000000     0.412290000000     0.201448   
H400     H      0.571420000000     0.437540000000     0.320450000000     0.198239   
H401     H      0.861980000000     0.163810000000     0.270930000000     0.195471   
H402     H      0.776830000000     0.249910000000     0.157710000000     0.190911   
H403     H      0.690730000000     0.163920000000     0.268930000000     0.192876   
H404     H      0.775640000000     0.249210000000     0.382670000000     0.19547    
H405     H      0.819940000000     0.226130000000     0.083670000000     0.129581   
H406     H      0.737590000000     0.193300000000     0.073720000000     0.20442    
H407     H      0.631480000000     0.201830000000     0.213800000000     0.124657   
H408     H      0.625940000000     0.199840000000     0.320870000000     0.183808   
H409     H      0.739440000000     0.191160000000     0.456370000000     0.139256   
H410     H      0.814150000000     0.221090000000     0.465080000000     0.192027   
H411     H      0.919660000000     0.217230000000     0.320600000000     0.134517   
H412     H      0.926480000000     0.196780000000     0.219180000000     0.18668    
H413     H      0.627220000000     0.209280000000     0.385940000000     0.200425   
H414     H      0.851230000000     0.194650000000     0.468510000000     0.209714   
H415     H      0.926280000000     0.212820000000     0.158170000000     0.200055   
H416     H      0.718800000000     0.228980000000     0.075020000000     0.200192   
H417     H      0.706340000000     0.060260000000     0.125860000000     0.0370651  
H418     H      0.664590000000     0.101620000000     0.069460000000     0.0371189  
H419     H      0.591460000000     0.096410000000     0.087510000000     0.0431929  
H420     H      0.713440000000     0.067540000000     0.195980000000     0.042868   
H421     H      0.659020000000     0.029390000000     0.179100000000     0.0389886  
H422     H      0.640300000000     0.062300000000     0.214310000000     0.035424   
H423     H      0.645850000000     0.134590000000     0.104440000000     0.0453235  
H424     H      0.598340000000     0.103810000000     0.157660000000     0.0378554  
H425     H      0.597210000000     0.104990000000     0.373860000000     0.0361872  
H426     H      0.639230000000     0.064290000000     0.317730000000     0.0355491  
H427     H      0.712130000000     0.067490000000     0.340480000000     0.0434509  
H428     H      0.587140000000     0.096690000000     0.442920000000     0.0430256  
H429     H      0.643550000000     0.134030000000     0.432160000000     0.0404774  
H430     H      0.660020000000     0.099990000000     0.465930000000     0.0370664  
H431     H      0.655700000000     0.030160000000     0.351190000000     0.0424229  
H432     H      0.702220000000     0.059070000000     0.409570000000     0.0383967  
H433     H      0.696740000000     0.361450000000     0.113650000000     0.0371181  
H434     H      0.650080000000     0.319440000000     0.062150000000     0.0362755  
H435     H      0.634720000000     0.277890000000     0.122490000000     0.043293   
H436     H      0.670470000000     0.386170000000     0.159900000000     0.0397475  
H437     H      0.708590000000     0.344620000000     0.204610000000     0.0429551  
H438     H      0.654970000000     0.344750000000     0.220600000000     0.0381064  
H439     H      0.596420000000     0.319450000000     0.077850000000     0.0430708  
H440     H      0.608110000000     0.302410000000     0.168780000000     0.0396869  
H441     H      0.891170000000     0.101060000000     0.072570000000     0.0375195  
H442     H      0.849010000000     0.059860000000     0.129050000000     0.0387578  
H443     H      0.896110000000     0.029590000000     0.184130000000     0.0436546  
H444     H      0.909120000000     0.134340000000     0.107330000000     0.0417835  
H445     H      0.964260000000     0.096370000000     0.092790000000     0.043022   
H446     H      0.955950000000     0.103970000000     0.162530000000     0.0365842  
H447     H      0.841020000000     0.067630000000     0.198840000000     0.0435123  
H448     H      0.914090000000     0.062920000000     0.218650000000     0.0361136  
H449     H      0.890980000000     0.310110000000     0.467540000000     0.0364764  
H450     H      0.844530000000     0.350960000000     0.416130000000     0.0368272  
H451     H      0.887650000000     0.385070000000     0.363410000000     0.0389188  
H452     H      0.911180000000     0.278910000000     0.428950000000     0.0425126  
H453     H      0.962850000000     0.318990000000     0.446370000000     0.0434672  
H454     H      0.954580000000     0.312860000000     0.376120000000     0.0380172  
H455     H      0.835960000000     0.344990000000     0.345950000000     0.0432368  
H456     H      0.907810000000     0.354010000000     0.324380000000     0.0374555  
H457     H      0.908660000000     0.063980000000     0.321490000000     0.036759   
H458     H      0.951660000000     0.104760000000     0.376370000000     0.038589   
H459     H      0.906130000000     0.133890000000     0.436170000000     0.0414921  
H460     H      0.892670000000     0.029960000000     0.355610000000     0.0410964  
H461     H      0.836000000000     0.067350000000     0.346570000000     0.043186   
H462     H      0.847380000000     0.059230000000     0.415310000000     0.0364975  
H463     H      0.962800000000     0.096520000000     0.445170000000     0.0436371  
H464     H      0.890130000000     0.099760000000     0.469900000000     0.0366316  
H465     H      0.704950000000     0.350990000000     0.410700000000     0.038142   
H466     H      0.658160000000     0.309580000000     0.462480000000     0.0362912  
H467     H      0.586390000000     0.319010000000     0.441840000000     0.0431046  
H468     H      0.712560000000     0.345030000000     0.340240000000     0.0435404  
H469     H      0.661230000000     0.385250000000     0.359160000000     0.0441042  
H470     H      0.640770000000     0.354380000000     0.320040000000     0.0368412  
H471     H      0.637760000000     0.278830000000     0.422980000000     0.0392625  
H472     H      0.594340000000     0.313230000000     0.371450000000     0.0373766  
H473     H      0.914090000000     0.354450000000     0.215580000000     0.0367847  
H474     H      0.958470000000     0.312940000000     0.160600000000     0.0372616  
H475     H      0.912610000000     0.278720000000     0.112840000000     0.0369678  
H476     H      0.892100000000     0.385230000000     0.177630000000     0.0438658  
H477     H      0.841720000000     0.345120000000     0.200790000000     0.043264   
H478     H      0.846110000000     0.351080000000     0.129820000000     0.0378183  
H479     H      0.963000000000     0.318820000000     0.089650000000     0.0429604  
H480     H      0.890640000000     0.309430000000     0.074690000000     0.0354264  
N65      N      0.621080000000     0.060530000000     0.133220000000    -0.166201   
N66      N      0.683600000000     0.103480000000     0.150630000000    -0.165091   
N67      N      0.681750000000     0.103150000000     0.386050000000    -0.165747   
N68      N      0.617710000000     0.060980000000     0.397690000000    -0.165761   
N69      N      0.672490000000     0.308390000000     0.169280000000    -0.166029   
N70      N      0.632330000000     0.355650000000     0.113630000000    -0.166094   
N71      N      0.934000000000     0.060530000000     0.137900000000    -0.165524   
N72      N      0.871010000000     0.103380000000     0.153230000000    -0.165162   
N73      N      0.929350000000     0.354560000000     0.404530000000    -0.165936   
N74      N      0.869770000000     0.309380000000     0.387270000000    -0.165696   
N75      N      0.867590000000     0.103110000000     0.390440000000    -0.16582    
N76      N      0.931460000000     0.060800000000     0.400870000000    -0.166091   
N77      N      0.619760000000     0.354700000000     0.400360000000    -0.165076   
N78      N      0.679510000000     0.309400000000     0.382290000000    -0.165385   
N79      N      0.872630000000     0.309430000000     0.156300000000    -0.166054   
N80      N      0.931940000000     0.354530000000     0.133890000000    -0.165021   
O257     O      0.943850000000     0.405680000000     0.121380000000    -0.376342   
O258     O      0.981640000000     0.370620000000     0.075870000000    -0.373161   
O259     O      0.943310000000     0.009700000000     0.413480000000    -0.378977   
O260     O      0.980150000000     0.044780000000     0.460180000000    -0.372975   
O261     O      0.940900000000     0.405770000000     0.416980000000    -0.374542   
O262     O      0.979690000000     0.370760000000     0.461050000000    -0.373825   
O263     O      0.946140000000     0.009450000000     0.125100000000    -0.376795   
O264     O      0.981700000000     0.044660000000     0.077000000000    -0.372232   
O265     O      0.892500000000     0.458740000000     0.107130000000    -0.342031   
O266     O      0.975080000000     0.456220000000     0.195780000000    -0.529191   
O267     O      0.889480000000     0.459320000000     0.441010000000    -0.524237   
O268     O      0.964600000000     0.456260000000     0.341660000000    -0.353937   
O269     O      0.963980000000     0.428400000000     0.019380000000    -0.498102   
O270     O      0.964080000000     0.486900000000     0.019570000000    -0.632243   
O271     O      0.608640000000     0.009540000000     0.120570000000    -0.381398   
O272     O      0.571880000000     0.044820000000     0.074200000000    -0.372636   
O273     O      0.608050000000     0.405920000000     0.413120000000    -0.374641   
O274     O      0.569820000000     0.370810000000     0.457760000000    -0.371192   
O275     O      0.605520000000     0.009870000000     0.409760000000    -0.378635   
O276     O      0.569830000000     0.044920000000     0.458130000000    -0.372414   
O277     O      0.615800000000     0.406380000000     0.108240000000    -0.373268   
O278     O      0.575480000000     0.370960000000     0.067810000000    -0.373919   
O279     O      0.661600000000     0.461040000000     0.101830000000    -0.519437   
O280     O      0.582150000000     0.453310000000     0.192150000000    -0.360699   
O281     O      0.659220000000     0.458920000000     0.427420000000    -0.340693   
O282     O      0.576790000000     0.456720000000     0.338470000000    -0.531519   
O283     O      0.587650000000     0.487000000000     0.014950000000    -0.63377    
O284     O      0.587320000000     0.428770000000     0.014680000000    -0.497412   
O285     O      0.527430000000     0.487580000000     0.098820000000    -0.500121   
O286     O      0.524120000000     0.428160000000     0.435390000000    -0.633118   
O287     O      0.527670000000     0.427690000000     0.098920000000    -0.63221    
O288     O      0.524000000000     0.487650000000     0.435800000000    -0.498857   
O289     O      0.858800000000     0.258160000000     0.373950000000    -0.37648    
O290     O      0.820900000000     0.293190000000     0.328550000000    -0.374391   
O291     O      0.858410000000     0.154450000000     0.165290000000    -0.37141    
O292     O      0.822120000000     0.119260000000     0.212490000000    -0.372019   
O293     O      0.860420000000     0.258290000000     0.168420000000    -0.38138    
O294     O      0.822210000000     0.293360000000     0.213290000000    -0.374037   
O295     O      0.856390000000     0.154230000000     0.376990000000    -0.376139   
O296     O      0.820260000000     0.119170000000     0.329310000000    -0.372966   
O297     O      0.911360000000     0.204830000000     0.352030000000    -0.348966   
O298     O      0.833270000000     0.207510000000     0.447420000000    -0.527696   
O299     O      0.911590000000     0.205230000000     0.189100000000    -0.522577   
O300     O      0.834360000000     0.206860000000     0.092840000000    -0.351743   
O301     O      0.838380000000     0.235580000000     0.270780000000    -0.499258   
O302     O      0.838220000000     0.177020000000     0.270610000000    -0.63228    
O303     O      0.694410000000     0.154240000000     0.374540000000    -0.378918   
O304     O      0.730720000000     0.119160000000     0.327050000000    -0.372406   
O305     O      0.688670000000     0.257600000000     0.175510000000    -0.376383   
O306     O      0.728420000000     0.293020000000     0.216900000000    -0.374343   
O307     O      0.695720000000     0.154490000000     0.163740000000    -0.37557    
O308     O      0.731830000000     0.119210000000     0.210980000000    -0.371888   
O309     O      0.691780000000     0.258190000000     0.370510000000    -0.371987   
O310     O      0.730770000000     0.293260000000     0.326940000000    -0.370742   
O311     O      0.641360000000     0.204930000000     0.352740000000    -0.521186   
O312     O      0.719940000000     0.207730000000     0.447110000000    -0.360654   
O313     O      0.642550000000     0.203370000000     0.176910000000    -0.336119   
O314     O      0.726090000000     0.210300000000     0.093500000000    -0.532719   
O315     O      0.714540000000     0.177050000000     0.269280000000    -0.633623   
O316     O      0.714940000000     0.235270000000     0.269490000000    -0.495953   
O317     O      0.775980000000     0.176390000000     0.351440000000    -0.497712   
O318     O      0.776950000000     0.236280000000     0.188240000000    -0.632436   
O319     O      0.775910000000     0.235830000000     0.351800000000    -0.633374   
O320     O      0.777130000000     0.176410000000     0.188380000000    -0.495115   
Zr49     Zr     0.966850000000     0.457560000000     0.099660000000     1.37457    
Zr50     Zr     0.963300000000     0.457760000000     0.439300000000     1.37508    
Zr51     Zr     0.588080000000     0.457750000000     0.095070000000     1.37458    
Zr52     Zr     0.584860000000     0.457900000000     0.434600000000     1.37458    
Zr53     Zr     0.525840000000     0.399750000000     0.016890000000     1.37884    
Zr54     Zr     0.525820000000     0.015940000000     0.017380000000     1.37343    
Zr55     Zr     0.836800000000     0.206200000000     0.350820000000     1.37456    
Zr56     Zr     0.837770000000     0.206380000000     0.190490000000     1.37255    
Zr57     Zr     0.715140000000     0.206170000000     0.349660000000     1.37391    
Zr58     Zr     0.716440000000     0.206270000000     0.189130000000     1.37528    
Zr59     Zr     0.776500000000     0.264230000000     0.270280000000     1.37829    
Zr60     Zr     0.776370000000     0.148070000000     0.269870000000     1.3765     
C241     C      0.953290000000     0.377770000000     0.609540000000     0.389885   
C242     C      0.952540000000     0.037590000000     0.925560000000     0.391224   
C243     C      0.950770000000     0.377880000000     0.928350000000     0.393266   
C244     C      0.954850000000     0.037380000000     0.612600000000     0.389523   
C245     C      0.599620000000     0.037480000000     0.608590000000     0.39065    
C246     C      0.598400000000     0.377990000000     0.924550000000     0.39032    
C247     C      0.596760000000     0.037750000000     0.922560000000     0.390048   
C248     C      0.606780000000     0.378470000000     0.596200000000     0.396123   
C249     C      0.849060000000     0.286060000000     0.862390000000     0.391405   
C250     C      0.849580000000     0.126530000000     0.677710000000     0.390675   
C251     C      0.850940000000     0.286200000000     0.680160000000     0.390424   
C252     C      0.847200000000     0.126350000000     0.864810000000     0.392955   
C253     C      0.703230000000     0.126350000000     0.861880000000     0.390765   
C254     C      0.697610000000     0.285520000000     0.687600000000     0.394465   
C255     C      0.704620000000     0.126540000000     0.675870000000     0.390339   
C256     C      0.701530000000     0.286100000000     0.859150000000     0.391761   
C257     C      0.652760000000     0.109800000000     0.608770000000    -0.013836   
C258     C      0.692010000000     0.070890000000     0.661830000000    -0.012555   
C259     C      0.612750000000     0.093120000000     0.621820000000    -0.0118632  
C260     C      0.652050000000     0.054180000000     0.674920000000    -0.0125631  
C261     C      0.649540000000     0.054960000000     0.857000000000    -0.0133482  
C262     C      0.609810000000     0.093510000000     0.910130000000    -0.0123993  
C263     C      0.689570000000     0.070620000000     0.873420000000    -0.0120283  
C264     C      0.649790000000     0.109220000000     0.926560000000    -0.0127445  
C265     C      0.627430000000     0.323890000000     0.594550000000    -0.0111943  
C266     C      0.670650000000     0.362790000000     0.642270000000    -0.0116885  
C267     C      0.634310000000     0.301230000000     0.640310000000    -0.0136447  
C268     C      0.677520000000     0.340190000000     0.688120000000    -0.0120406  
C269     C      0.862800000000     0.070820000000     0.665040000000    -0.0119303  
C270     C      0.902360000000     0.109550000000     0.611980000000    -0.0125477  
C271     C      0.902780000000     0.054380000000     0.679320000000    -0.0136426  
C272     C      0.942300000000     0.093090000000     0.626370000000    -0.0125632  
C273     C      0.858580000000     0.341790000000     0.878780000000    -0.0125194  
C274     C      0.902210000000     0.303440000000     0.927070000000    -0.0126536  
C275     C      0.896700000000     0.360540000000     0.865000000000    -0.0109779  
C276     C      0.940390000000     0.322130000000     0.913310000000    -0.0114971  
C277     C      0.939640000000     0.093340000000     0.913000000000    -0.0125383  
C278     C      0.898980000000     0.054770000000     0.861080000000    -0.0129804  
C279     C      0.899910000000     0.109090000000     0.930420000000    -0.0120591  
C280     C      0.859310000000     0.070580000000     0.878550000000    -0.0119264  
C281     C      0.646890000000     0.303340000000     0.921830000000    -0.0110766  
C282     C      0.690420000000     0.341850000000     0.873660000000    -0.0113794  
C283     C      0.608720000000     0.322270000000     0.908680000000    -0.0124554  
C284     C      0.652170000000     0.360730000000     0.860570000000    -0.0131572  
C285     C      0.942370000000     0.322060000000     0.624660000000    -0.0126597  
C286     C      0.901090000000     0.360690000000     0.675800000000    -0.0133538  
C287     C      0.903570000000     0.303250000000     0.614520000000    -0.0114409  
C288     C      0.862260000000     0.341900000000     0.665670000000    -0.0115492  
H481     H      0.940290000000     0.000070000000     0.520340000000     0.192753   
H482     H      0.523530000000     0.414790000000     0.904510000000     0.196233   
H483     H      0.611440000000     0.000140000000     0.514320000000     0.193158   
H484     H      0.528570000000     0.414100000000     0.629500000000     0.197292   
H485     H      0.987310000000     0.470130000000     0.831480000000     0.136269   
H486     H      0.578410000000     0.475470000000     0.817980000000     0.201672   
H487     H      0.668980000000     0.453820000000     0.963970000000     0.127859   
H488     H      0.677690000000     0.466350000000     0.570640000000     0.185013   
H489     H      0.565960000000     0.471450000000     0.703120000000     0.137813   
H490     H      0.978370000000     0.436830000000     0.714010000000     0.200071   
H491     H      0.882650000000     0.450490000000     0.572450000000     0.131277   
H492     H      0.875460000000     0.469580000000     0.970050000000     0.185612   
H493     H      0.674950000000     0.457270000000     0.635810000000     0.200287   
H494     H      0.975670000000     0.475090000000     0.716020000000     0.202838   
H495     H      0.873940000000     0.450060000000     0.912290000000     0.201451   
H496     H      0.571420000000     0.437530000000     0.820450000000     0.19798    
H497     H      0.861980000000     0.163810000000     0.770920000000     0.195474   
H498     H      0.776830000000     0.249910000000     0.657710000000     0.190909   
H499     H      0.690730000000     0.163920000000     0.768920000000     0.192879   
H500     H      0.775640000000     0.249210000000     0.882670000000     0.195602   
H501     H      0.819940000000     0.226130000000     0.583660000000     0.129586   
H502     H      0.737590000000     0.193300000000     0.573720000000     0.204428   
H503     H      0.631480000000     0.201830000000     0.713800000000     0.124656   
H504     H      0.625940000000     0.199840000000     0.820860000000     0.183737   
H505     H      0.739440000000     0.191160000000     0.956370000000     0.139263   
H506     H      0.814150000000     0.221080000000     0.965080000000     0.192114   
H507     H      0.919660000000     0.217230000000     0.820600000000     0.134429   
H508     H      0.926480000000     0.196780000000     0.719190000000     0.186745   
H509     H      0.627220000000     0.209280000000     0.885940000000     0.200362   
H510     H      0.851230000000     0.194650000000     0.968510000000     0.209681   
H511     H      0.926280000000     0.212810000000     0.658170000000     0.199967   
H512     H      0.718800000000     0.228980000000     0.575020000000     0.200199   
H513     H      0.706340000000     0.060260000000     0.625860000000     0.0370722  
H514     H      0.664590000000     0.101620000000     0.569460000000     0.0371326  
H515     H      0.591460000000     0.096410000000     0.587520000000     0.043209   
H516     H      0.713440000000     0.067540000000     0.695980000000     0.0428728  
H517     H      0.659020000000     0.029390000000     0.679100000000     0.038995   
H518     H      0.640300000000     0.062300000000     0.714310000000     0.0354272  
H519     H      0.645850000000     0.134590000000     0.604450000000     0.0453336  
H520     H      0.598340000000     0.103810000000     0.657660000000     0.0378559  
H521     H      0.597210000000     0.104990000000     0.873870000000     0.0362025  
H522     H      0.639230000000     0.064290000000     0.817730000000     0.0355526  
H523     H      0.712130000000     0.067490000000     0.840480000000     0.0434486  
H524     H      0.587140000000     0.096690000000     0.942910000000     0.043043   
H525     H      0.643550000000     0.134030000000     0.932160000000     0.0404869  
H526     H      0.660020000000     0.099990000000     0.965930000000     0.0370745  
H527     H      0.655700000000     0.030160000000     0.851190000000     0.042428   
H528     H      0.702220000000     0.059070000000     0.909580000000     0.0383944  
H529     H      0.696740000000     0.361440000000     0.613650000000     0.0371388  
H530     H      0.650080000000     0.319440000000     0.562150000000     0.0362995  
H531     H      0.634720000000     0.277890000000     0.622490000000     0.0432958  
H532     H      0.670470000000     0.386170000000     0.659900000000     0.0397642  
H533     H      0.708590000000     0.344610000000     0.704610000000     0.0429372  
H534     H      0.654970000000     0.344750000000     0.720600000000     0.0380775  
H535     H      0.596420000000     0.319450000000     0.577860000000     0.0430899  
H536     H      0.608110000000     0.302410000000     0.668780000000     0.0396871  
H537     H      0.891170000000     0.101060000000     0.572560000000     0.0375133  
H538     H      0.849010000000     0.059860000000     0.629050000000     0.0387692  
H539     H      0.896110000000     0.029590000000     0.684130000000     0.0436541  
H540     H      0.909120000000     0.134340000000     0.607330000000     0.0417782  
H541     H      0.964260000000     0.096370000000     0.592790000000     0.0430322  
H542     H      0.955950000000     0.103970000000     0.662530000000     0.0365879  
H543     H      0.841020000000     0.067630000000     0.698840000000     0.0435141  
H544     H      0.914090000000     0.062920000000     0.718650000000     0.0361107  
H545     H      0.890980000000     0.310100000000     0.967540000000     0.0365074  
H546     H      0.844530000000     0.350950000000     0.916140000000     0.0368487  
H547     H      0.887650000000     0.385070000000     0.863410000000     0.0388991  
H548     H      0.911180000000     0.278910000000     0.928950000000     0.0425424  
H549     H      0.962850000000     0.318990000000     0.946370000000     0.0434684  
H550     H      0.954580000000     0.312860000000     0.876120000000     0.0380108  
H551     H      0.835960000000     0.344990000000     0.845960000000     0.0432508  
H552     H      0.907810000000     0.354010000000     0.824390000000     0.0374471  
H553     H      0.908660000000     0.063980000000     0.821480000000     0.0367421  
H554     H      0.951660000000     0.104760000000     0.876370000000     0.0385979  
H555     H      0.906130000000     0.133890000000     0.936170000000     0.0414971  
H556     H      0.892670000000     0.029960000000     0.855610000000     0.0410864  
H557     H      0.836000000000     0.067350000000     0.846570000000     0.04319    
H558     H      0.847380000000     0.059230000000     0.915310000000     0.0365048  
H559     H      0.962800000000     0.096520000000     0.945170000000     0.0436519  
H560     H      0.890130000000     0.099760000000     0.969900000000     0.0366394  
H561     H      0.704950000000     0.350990000000     0.910700000000     0.0381609  
H562     H      0.658160000000     0.309580000000     0.962470000000     0.0363127  
H563     H      0.586390000000     0.319010000000     0.941850000000     0.0431067  
H564     H      0.712560000000     0.345020000000     0.840240000000     0.0435608  
H565     H      0.661230000000     0.385250000000     0.859160000000     0.0441062  
H566     H      0.640770000000     0.354380000000     0.820040000000     0.0368371  
H567     H      0.637760000000     0.278830000000     0.922990000000     0.0392597  
H568     H      0.594340000000     0.313230000000     0.871450000000     0.0373724  
H569     H      0.914090000000     0.354440000000     0.715580000000     0.0367999  
H570     H      0.958470000000     0.312940000000     0.660600000000     0.0372527  
H571     H      0.912610000000     0.278720000000     0.612840000000     0.0369823  
H572     H      0.892100000000     0.385230000000     0.677620000000     0.043884   
H573     H      0.841720000000     0.345120000000     0.700790000000     0.0432382  
H574     H      0.846110000000     0.351070000000     0.629820000000     0.0377982  
H575     H      0.963000000000     0.318810000000     0.589640000000     0.0429414  
H576     H      0.890640000000     0.309430000000     0.574690000000     0.0354414  
N81      N      0.621080000000     0.060530000000     0.633210000000    -0.166214   
N82      N      0.683600000000     0.103480000000     0.650630000000    -0.165089   
N83      N      0.681750000000     0.103150000000     0.886050000000    -0.165748   
N84      N      0.617710000000     0.060980000000     0.897690000000    -0.165753   
N85      N      0.672490000000     0.308390000000     0.669290000000    -0.166061   
N86      N      0.632330000000     0.355650000000     0.613620000000    -0.16613    
N87      N      0.934000000000     0.060530000000     0.637900000000    -0.165522   
N88      N      0.871010000000     0.103380000000     0.653220000000    -0.16515    
N89      N      0.929350000000     0.354560000000     0.904530000000    -0.165956   
N90      N      0.869770000000     0.309380000000     0.887270000000    -0.16567    
N91      N      0.867590000000     0.103110000000     0.890440000000    -0.165832   
N92      N      0.931460000000     0.060800000000     0.900860000000    -0.166072   
N93      N      0.619760000000     0.354700000000     0.900360000000    -0.165076   
N94      N      0.679510000000     0.309400000000     0.882300000000    -0.165365   
N95      N      0.872630000000     0.309430000000     0.656310000000    -0.166077   
N96      N      0.931940000000     0.354530000000     0.633890000000    -0.165021   
O321     O      0.943850000000     0.405680000000     0.621380000000    -0.376343   
O322     O      0.981640000000     0.370620000000     0.575870000000    -0.373164   
O323     O      0.943310000000     0.009700000000     0.913480000000    -0.378957   
O324     O      0.980150000000     0.044780000000     0.960180000000    -0.372947   
O325     O      0.940900000000     0.405770000000     0.916990000000    -0.37457    
O326     O      0.979690000000     0.370760000000     0.961050000000    -0.37381    
O327     O      0.946140000000     0.009450000000     0.625100000000    -0.37679    
O328     O      0.981700000000     0.044660000000     0.577000000000    -0.372224   
O329     O      0.892500000000     0.458740000000     0.607130000000    -0.341953   
O330     O      0.975080000000     0.456220000000     0.695770000000    -0.528988   
O331     O      0.889480000000     0.459320000000     0.941010000000    -0.524237   
O332     O      0.964600000000     0.456260000000     0.841660000000    -0.353942   
O333     O      0.963980000000     0.428400000000     0.519380000000    -0.498089   
O334     O      0.964080000000     0.486900000000     0.519580000000    -0.632239   
O335     O      0.608640000000     0.009540000000     0.620570000000    -0.381399   
O336     O      0.571880000000     0.044820000000     0.574200000000    -0.372636   
O337     O      0.608050000000     0.405920000000     0.913120000000    -0.374619   
O338     O      0.569820000000     0.370810000000     0.957760000000    -0.371168   
O339     O      0.605520000000     0.009870000000     0.909760000000    -0.378616   
O340     O      0.569830000000     0.044920000000     0.958130000000    -0.372395   
O341     O      0.615800000000     0.406380000000     0.608250000000    -0.373122   
O342     O      0.575480000000     0.370960000000     0.567810000000    -0.373922   
O343     O      0.661600000000     0.461040000000     0.601830000000    -0.519441   
O344     O      0.582150000000     0.453310000000     0.692150000000    -0.360668   
O345     O      0.659220000000     0.458920000000     0.927420000000    -0.340683   
O346     O      0.576790000000     0.456720000000     0.838470000000    -0.531094   
O347     O      0.587650000000     0.487000000000     0.514950000000    -0.633714   
O348     O      0.587320000000     0.428770000000     0.514680000000    -0.49736    
O349     O      0.527430000000     0.487580000000     0.598830000000    -0.500069   
O350     O      0.524120000000     0.428160000000     0.935390000000    -0.632957   
O351     O      0.527670000000     0.427690000000     0.598920000000    -0.632337   
O352     O      0.524000000000     0.487650000000     0.935800000000    -0.498839   
O353     O      0.858800000000     0.258160000000     0.873960000000    -0.376443   
O354     O      0.820900000000     0.293190000000     0.828550000000    -0.37438    
O355     O      0.858410000000     0.154450000000     0.665290000000    -0.371475   
O356     O      0.822120000000     0.119260000000     0.712490000000    -0.37203    
O357     O      0.860420000000     0.258290000000     0.668420000000    -0.381313   
O358     O      0.822210000000     0.293360000000     0.713290000000    -0.374028   
O359     O      0.856390000000     0.154230000000     0.876990000000    -0.376153   
O360     O      0.820260000000     0.119170000000     0.829320000000    -0.372999   
O361     O      0.911360000000     0.204830000000     0.852040000000    -0.348882   
O362     O      0.833270000000     0.207510000000     0.947410000000    -0.527752   
O363     O      0.911590000000     0.205220000000     0.689110000000    -0.522559   
O364     O      0.834360000000     0.206860000000     0.592840000000    -0.351725   
O365     O      0.838380000000     0.235580000000     0.770780000000    -0.499228   
O366     O      0.838220000000     0.177020000000     0.770610000000    -0.632334   
O367     O      0.694410000000     0.154240000000     0.874540000000    -0.378898   
O368     O      0.730720000000     0.119160000000     0.827050000000    -0.3724     
O369     O      0.688670000000     0.257600000000     0.675510000000    -0.37639    
O370     O      0.728420000000     0.293020000000     0.716900000000    -0.374354   
O371     O      0.695720000000     0.154490000000     0.663740000000    -0.375571   
O372     O      0.731830000000     0.119210000000     0.710980000000    -0.371886   
O373     O      0.691780000000     0.258190000000     0.870510000000    -0.372012   
O374     O      0.730770000000     0.293260000000     0.826950000000    -0.370825   
O375     O      0.641360000000     0.204920000000     0.852740000000    -0.521057   
O376     O      0.719940000000     0.207730000000     0.947120000000    -0.360614   
O377     O      0.642550000000     0.203370000000     0.676910000000    -0.336117   
O378     O      0.726090000000     0.210300000000     0.593500000000    -0.532719   
O379     O      0.714540000000     0.177050000000     0.769280000000    -0.633616   
O380     O      0.714940000000     0.235270000000     0.769490000000    -0.495963   
O381     O      0.775980000000     0.176390000000     0.851440000000    -0.497703   
O382     O      0.776950000000     0.236280000000     0.688240000000    -0.632382   
O383     O      0.775910000000     0.235830000000     0.851810000000    -0.633452   
O384     O      0.777130000000     0.176410000000     0.688380000000    -0.495158   
Zr61     Zr     0.966850000000     0.457560000000     0.599660000000     1.37466    
Zr62     Zr     0.963300000000     0.457760000000     0.939300000000     1.37519    
Zr63     Zr     0.588080000000     0.457750000000     0.595070000000     1.37456    
Zr64     Zr     0.584860000000     0.457900000000     0.934610000000     1.37458    
Zr65     Zr     0.525840000000     0.399750000000     0.516890000000     1.37893    
Zr66     Zr     0.525820000000     0.015940000000     0.517380000000     1.37344    
Zr67     Zr     0.836800000000     0.206200000000     0.850820000000     1.37461    
Zr68     Zr     0.837770000000     0.206370000000     0.690490000000     1.37255    
Zr69     Zr     0.715140000000     0.206170000000     0.849660000000     1.37386    
Zr70     Zr     0.716440000000     0.206270000000     0.689130000000     1.37528    
Zr71     Zr     0.776500000000     0.264230000000     0.770280000000     1.37824    
Zr72     Zr     0.776370000000     0.148070000000     0.769870000000     1.37647    
C289     C      0.953290000000     0.877770000000     0.109540000000     0.389948   
C290     C      0.952540000000     0.537580000000     0.425560000000     0.391259   
C291     C      0.950770000000     0.877880000000     0.428350000000     0.393114   
C292     C      0.954850000000     0.537380000000     0.112600000000     0.389534   
C293     C      0.599630000000     0.537480000000     0.108590000000     0.390551   
C294     C      0.598400000000     0.877990000000     0.424550000000     0.390334   
C295     C      0.596760000000     0.537760000000     0.422560000000     0.389996   
C296     C      0.606780000000     0.878470000000     0.096200000000     0.396236   
C297     C      0.849060000000     0.786060000000     0.362390000000     0.391451   
C298     C      0.849580000000     0.626530000000     0.177710000000     0.390701   
C299     C      0.850940000000     0.786200000000     0.180160000000     0.390389   
C300     C      0.847200000000     0.626350000000     0.364810000000     0.392871   
C301     C      0.703230000000     0.626350000000     0.361880000000     0.390761   
C302     C      0.697610000000     0.785530000000     0.187600000000     0.394241   
C303     C      0.704620000000     0.626550000000     0.175870000000     0.39057    
C304     C      0.701530000000     0.786100000000     0.359160000000     0.391585   
C305     C      0.652760000000     0.609800000000     0.108770000000    -0.0138474  
C306     C      0.692010000000     0.570900000000     0.161820000000    -0.0124642  
C307     C      0.612760000000     0.593120000000     0.121830000000    -0.0118125  
C308     C      0.652050000000     0.554180000000     0.174920000000    -0.0125425  
C309     C      0.649540000000     0.554970000000     0.357000000000    -0.0132769  
C310     C      0.609810000000     0.593510000000     0.410130000000    -0.0123897  
C311     C      0.689570000000     0.570620000000     0.373420000000    -0.0120778  
C312     C      0.649790000000     0.609210000000     0.426560000000    -0.0127048  
C313     C      0.627430000000     0.823890000000     0.094560000000    -0.0112346  
C314     C      0.670650000000     0.862780000000     0.142270000000    -0.0115509  
C315     C      0.634310000000     0.801240000000     0.140310000000    -0.0135485  
C316     C      0.677520000000     0.840190000000     0.188120000000    -0.012112   
C317     C      0.862800000000     0.570820000000     0.165040000000    -0.0119334  
C318     C      0.902360000000     0.609550000000     0.111980000000    -0.0125558  
C319     C      0.902780000000     0.554380000000     0.179320000000    -0.01361    
C320     C      0.942300000000     0.593090000000     0.126370000000    -0.01257    
C321     C      0.858580000000     0.841790000000     0.378780000000    -0.0124797  
C322     C      0.902210000000     0.803440000000     0.427060000000    -0.0125653  
C323     C      0.896700000000     0.860550000000     0.365000000000    -0.0110407  
C324     C      0.940400000000     0.822130000000     0.413310000000    -0.0115996  
C325     C      0.939640000000     0.593330000000     0.412990000000    -0.0123451  
C326     C      0.898980000000     0.554770000000     0.361080000000    -0.0130773  
C327     C      0.899910000000     0.609090000000     0.430420000000    -0.012141   
C328     C      0.859310000000     0.570580000000     0.378550000000    -0.0119269  
C329     C      0.646890000000     0.803340000000     0.421830000000    -0.0111512  
C330     C      0.690420000000     0.841850000000     0.373660000000    -0.0112974  
C331     C      0.608720000000     0.822270000000     0.408680000000    -0.0124641  
C332     C      0.652170000000     0.860730000000     0.360570000000    -0.0131957  
C333     C      0.942370000000     0.822060000000     0.124660000000    -0.0126853  
C334     C      0.901090000000     0.860690000000     0.175800000000    -0.0133363  
C335     C      0.903570000000     0.803250000000     0.114520000000    -0.0114153  
C336     C      0.862270000000     0.841910000000     0.165670000000    -0.0115892  
H577     H      0.940290000000     0.500080000000     0.020340000000     0.193868   
H578     H      0.523540000000     0.914800000000     0.404510000000     0.196381   
H579     H      0.611440000000     0.500130000000     0.014320000000     0.194739   
H580     H      0.528570000000     0.914100000000     0.129510000000     0.197167   
H581     H      0.987310000000     0.970130000000     0.331480000000     0.13658    
H582     H      0.578410000000     0.975470000000     0.317990000000     0.202115   
H583     H      0.668980000000     0.953820000000     0.463970000000     0.127964   
H584     H      0.677690000000     0.966350000000     0.070640000000     0.185309   
H585     H      0.565960000000     0.971450000000     0.203110000000     0.13785    
H586     H      0.978370000000     0.936830000000     0.214000000000     0.2002     
H587     H      0.882650000000     0.950500000000     0.072460000000     0.13148    
H588     H      0.875460000000     0.969590000000     0.470050000000     0.185716   
H589     H      0.674950000000     0.957270000000     0.135810000000     0.200519   
H590     H      0.975670000000     0.975100000000     0.216020000000     0.203077   
H591     H      0.873940000000     0.950060000000     0.412290000000     0.201484   
H592     H      0.571420000000     0.937530000000     0.320450000000     0.198056   
H593     H      0.861980000000     0.663810000000     0.270930000000     0.195629   
H594     H      0.776830000000     0.749910000000     0.157710000000     0.190906   
H595     H      0.690730000000     0.663920000000     0.268930000000     0.19287    
H596     H      0.775640000000     0.749210000000     0.382670000000     0.195621   
H597     H      0.819940000000     0.726130000000     0.083670000000     0.129735   
H598     H      0.737590000000     0.693300000000     0.073720000000     0.204414   
H599     H      0.631480000000     0.701830000000     0.213800000000     0.124653   
H600     H      0.625940000000     0.699850000000     0.320870000000     0.183743   
H601     H      0.739440000000     0.691160000000     0.456370000000     0.139257   
H602     H      0.814150000000     0.721090000000     0.465080000000     0.192017   
H603     H      0.919670000000     0.717230000000     0.320600000000     0.134496   
H604     H      0.926480000000     0.696780000000     0.219180000000     0.186758   
H605     H      0.627220000000     0.709280000000     0.385940000000     0.200322   
H606     H      0.851230000000     0.694650000000     0.468510000000     0.209702   
H607     H      0.926280000000     0.712810000000     0.158170000000     0.20007    
H608     H      0.718800000000     0.728980000000     0.075020000000     0.200183   
H609     H      0.706340000000     0.560270000000     0.125860000000     0.0371849  
H610     H      0.664590000000     0.601620000000     0.069460000000     0.0371419  
H611     H      0.591460000000     0.596410000000     0.087510000000     0.0431655  
H612     H      0.713440000000     0.567540000000     0.195980000000     0.0429538  
H613     H      0.659020000000     0.529380000000     0.179100000000     0.0392499  
H614     H      0.640300000000     0.562300000000     0.214310000000     0.0355119  
H615     H      0.645850000000     0.634600000000     0.104440000000     0.0453209  
H616     H      0.598340000000     0.603810000000     0.157660000000     0.0378562  
H617     H      0.597220000000     0.604990000000     0.373860000000     0.0362155  
H618     H      0.639230000000     0.564290000000     0.317730000000     0.0356173  
H619     H      0.712130000000     0.567490000000     0.340480000000     0.0435562  
H620     H      0.587140000000     0.596690000000     0.442920000000     0.0430192  
H621     H      0.643550000000     0.634030000000     0.432160000000     0.040454   
H622     H      0.660020000000     0.599990000000     0.465930000000     0.037071   
H623     H      0.655700000000     0.530160000000     0.351190000000     0.0426622  
H624     H      0.702220000000     0.559070000000     0.409570000000     0.0385374  
H625     H      0.696740000000     0.861450000000     0.113650000000     0.0371204  
H626     H      0.650080000000     0.819440000000     0.062150000000     0.0362915  
H627     H      0.634720000000     0.777890000000     0.122490000000     0.0432532  
H628     H      0.670470000000     0.886170000000     0.159900000000     0.0397685  
H629     H      0.708590000000     0.844610000000     0.204610000000     0.0429709  
H630     H      0.654970000000     0.844750000000     0.220600000000     0.0380979  
H631     H      0.596420000000     0.819450000000     0.077850000000     0.0430776  
H632     H      0.608110000000     0.802410000000     0.168780000000     0.0396498  
H633     H      0.891170000000     0.601060000000     0.072570000000     0.0375286  
H634     H      0.849010000000     0.559860000000     0.129050000000     0.0388964  
H635     H      0.896110000000     0.529580000000     0.184130000000     0.0439063  
H636     H      0.909120000000     0.634350000000     0.107330000000     0.0417638  
H637     H      0.964260000000     0.596360000000     0.092790000000     0.0430291  
H638     H      0.955950000000     0.603970000000     0.162530000000     0.0366055  
H639     H      0.841020000000     0.567630000000     0.198840000000     0.043614   
H640     H      0.914090000000     0.562930000000     0.218650000000     0.0361944  
H641     H      0.890980000000     0.810110000000     0.467540000000     0.0364678  
H642     H      0.844530000000     0.850960000000     0.416130000000     0.0368498  
H643     H      0.887650000000     0.885070000000     0.363410000000     0.0389701  
H644     H      0.911180000000     0.778910000000     0.428950000000     0.0424969  
H645     H      0.962850000000     0.818990000000     0.446370000000     0.0434782  
H646     H      0.954580000000     0.812860000000     0.376120000000     0.0380281  
H647     H      0.835960000000     0.844990000000     0.345950000000     0.0432611  
H648     H      0.907810000000     0.854010000000     0.324380000000     0.0374667  
H649     H      0.908660000000     0.563980000000     0.321490000000     0.0368506  
H650     H      0.951660000000     0.604760000000     0.376370000000     0.0385577  
H651     H      0.906130000000     0.633890000000     0.436170000000     0.0414988  
H652     H      0.892670000000     0.529960000000     0.355610000000     0.0413674  
H653     H      0.836000000000     0.567360000000     0.346570000000     0.0433005  
H654     H      0.847380000000     0.559230000000     0.415310000000     0.0366389  
H655     H      0.962800000000     0.596520000000     0.445170000000     0.0435849  
H656     H      0.890130000000     0.599760000000     0.469900000000     0.036668   
H657     H      0.704950000000     0.850990000000     0.410700000000     0.0381558  
H658     H      0.658160000000     0.809580000000     0.462480000000     0.0363059  
H659     H      0.586390000000     0.819020000000     0.441840000000     0.0431081  
H660     H      0.712560000000     0.845030000000     0.340240000000     0.043551   
H661     H      0.661230000000     0.885250000000     0.359160000000     0.0441603  
H662     H      0.640780000000     0.854380000000     0.320040000000     0.036856   
H663     H      0.637760000000     0.778840000000     0.422980000000     0.0392746  
H664     H      0.594340000000     0.813230000000     0.371450000000     0.0373657  
H665     H      0.914090000000     0.854450000000     0.215580000000     0.0367968  
H666     H      0.958470000000     0.812940000000     0.160600000000     0.0372453  
H667     H      0.912610000000     0.778720000000     0.112840000000     0.0369618  
H668     H      0.892100000000     0.885230000000     0.177630000000     0.0439149  
H669     H      0.841720000000     0.845120000000     0.200790000000     0.0432708  
H670     H      0.846110000000     0.851080000000     0.129820000000     0.0378245  
H671     H      0.963000000000     0.818810000000     0.089650000000     0.0429332  
H672     H      0.890640000000     0.809430000000     0.074690000000     0.0354267  
N97      N      0.621090000000     0.560530000000     0.133220000000    -0.166161   
N98      N      0.683610000000     0.603480000000     0.150630000000    -0.165097   
N99      N      0.681750000000     0.603150000000     0.386050000000    -0.165745   
N100     N      0.617710000000     0.560980000000     0.397690000000    -0.165769   
N101     N      0.672490000000     0.808390000000     0.169280000000    -0.166077   
N102     N      0.632330000000     0.855660000000     0.113630000000    -0.166201   
N103     N      0.934000000000     0.560530000000     0.137900000000    -0.165487   
N104     N      0.871010000000     0.603380000000     0.153230000000    -0.165164   
N105     N      0.929350000000     0.854560000000     0.404530000000    -0.165909   
N106     N      0.869770000000     0.809380000000     0.387270000000    -0.165702   
N107     N      0.867590000000     0.603110000000     0.390440000000    -0.165806   
N108     N      0.931460000000     0.560810000000     0.400870000000    -0.165965   
N109     N      0.619760000000     0.854700000000     0.400360000000    -0.165074   
N110     N      0.679510000000     0.809410000000     0.382290000000    -0.165326   
N111     N      0.872630000000     0.809430000000     0.156300000000    -0.166059   
N112     N      0.931940000000     0.854530000000     0.133890000000    -0.165036   
O385     O      0.943860000000     0.905680000000     0.121380000000    -0.376428   
O386     O      0.981640000000     0.870620000000     0.075870000000    -0.373194   
O387     O      0.943310000000     0.509700000000     0.413480000000    -0.378311   
O388     O      0.980150000000     0.544780000000     0.460180000000    -0.372964   
O389     O      0.940900000000     0.905770000000     0.416980000000    -0.374551   
O390     O      0.979700000000     0.870760000000     0.461050000000    -0.373797   
O391     O      0.946140000000     0.509450000000     0.125100000000    -0.376028   
O392     O      0.981700000000     0.544660000000     0.077000000000    -0.372259   
O393     O      0.892500000000     0.958740000000     0.107130000000    -0.3417     
O394     O      0.975080000000     0.956220000000     0.195780000000    -0.528928   
O395     O      0.889490000000     0.959320000000     0.441010000000    -0.523873   
O396     O      0.964600000000     0.956270000000     0.341660000000    -0.353895   
O397     O      0.963980000000     0.928410000000     0.019380000000    -0.498267   
O398     O      0.964080000000     0.986900000000     0.019570000000    -0.630749   
O399     O      0.608640000000     0.509540000000     0.120570000000    -0.380623   
O400     O      0.571880000000     0.544820000000     0.074200000000    -0.372576   
O401     O      0.608050000000     0.905920000000     0.413120000000    -0.374671   
O402     O      0.569820000000     0.870810000000     0.457760000000    -0.371203   
O403     O      0.605520000000     0.509870000000     0.409760000000    -0.377744   
O404     O      0.569830000000     0.544920000000     0.458130000000    -0.372422   
O405     O      0.615800000000     0.906380000000     0.108240000000    -0.373187   
O406     O      0.575480000000     0.870960000000     0.067810000000    -0.373956   
O407     O      0.661600000000     0.961040000000     0.101830000000    -0.519321   
O408     O      0.582160000000     0.953300000000     0.192150000000    -0.360422   
O409     O      0.659220000000     0.958920000000     0.427420000000    -0.340314   
O410     O      0.576790000000     0.956720000000     0.338470000000    -0.53125    
O411     O      0.587650000000     0.986990000000     0.014950000000    -0.631878   
O412     O      0.587320000000     0.928770000000     0.014680000000    -0.497502   
O413     O      0.527430000000     0.987590000000     0.098820000000    -0.499332   
O414     O      0.524120000000     0.928160000000     0.435390000000    -0.633189   
O415     O      0.527670000000     0.927690000000     0.098920000000    -0.632353   
O416     O      0.524000000000     0.987650000000     0.435800000000    -0.498069   
O417     O      0.858800000000     0.758160000000     0.373950000000    -0.3765     
O418     O      0.820900000000     0.793190000000     0.328550000000    -0.37439    
O419     O      0.858410000000     0.654450000000     0.165290000000    -0.371482   
O420     O      0.822120000000     0.619260000000     0.212490000000    -0.372005   
O421     O      0.860420000000     0.758290000000     0.168420000000    -0.381309   
O422     O      0.822210000000     0.793360000000     0.213290000000    -0.374025   
O423     O      0.856390000000     0.654230000000     0.376990000000    -0.376152   
O424     O      0.820260000000     0.619170000000     0.329310000000    -0.372941   
O425     O      0.911370000000     0.704830000000     0.352030000000    -0.348982   
O426     O      0.833270000000     0.707510000000     0.447420000000    -0.527685   
O427     O      0.911590000000     0.705220000000     0.189100000000    -0.522692   
O428     O      0.834360000000     0.706870000000     0.092840000000    -0.35189    
O429     O      0.838380000000     0.735580000000     0.270780000000    -0.499237   
O430     O      0.838220000000     0.677010000000     0.270610000000    -0.632426   
O431     O      0.694410000000     0.654240000000     0.374540000000    -0.378912   
O432     O      0.730720000000     0.619160000000     0.327050000000    -0.372389   
O433     O      0.688670000000     0.757600000000     0.175510000000    -0.376228   
O434     O      0.728430000000     0.793020000000     0.216900000000    -0.374298   
O435     O      0.695720000000     0.654480000000     0.163740000000    -0.375782   
O436     O      0.731830000000     0.619200000000     0.210980000000    -0.371852   
O437     O      0.691780000000     0.758190000000     0.370510000000    -0.371969   
O438     O      0.730770000000     0.793260000000     0.326940000000    -0.370718   
O439     O      0.641370000000     0.704930000000     0.352740000000    -0.521093   
O440     O      0.719940000000     0.707730000000     0.447110000000    -0.360662   
O441     O      0.642550000000     0.703370000000     0.176910000000    -0.336134   
O442     O      0.726090000000     0.710300000000     0.093500000000    -0.532721   
O443     O      0.714540000000     0.677050000000     0.269280000000    -0.633631   
O444     O      0.714940000000     0.735270000000     0.269490000000    -0.495956   
O445     O      0.775980000000     0.676390000000     0.351440000000    -0.497667   
O446     O      0.776950000000     0.736280000000     0.188240000000    -0.632385   
O447     O      0.775910000000     0.735840000000     0.351800000000    -0.63342    
O448     O      0.777130000000     0.676410000000     0.188380000000    -0.49517    
Zr73     Zr     0.966850000000     0.957560000000     0.099660000000     1.37528    
Zr74     Zr     0.963300000000     0.957760000000     0.439300000000     1.37596    
Zr75     Zr     0.588080000000     0.957750000000     0.095070000000     1.37525    
Zr76     Zr     0.584860000000     0.957900000000     0.434600000000     1.37526    
Zr77     Zr     0.525840000000     0.899750000000     0.016890000000     1.37878    
Zr78     Zr     0.525820000000     0.515940000000     0.017380000000     1.37624    
Zr79     Zr     0.836810000000     0.706200000000     0.350820000000     1.37436    
Zr80     Zr     0.837770000000     0.706370000000     0.190490000000     1.3725     
Zr81     Zr     0.715140000000     0.706170000000     0.349660000000     1.37389    
Zr82     Zr     0.716440000000     0.706270000000     0.189130000000     1.3752     
Zr83     Zr     0.776500000000     0.764230000000     0.270280000000     1.37838    
Zr84     Zr     0.776370000000     0.648070000000     0.269870000000     1.37652    
C337     C      0.953290000000     0.877770000000     0.609540000000     0.389954   
C338     C      0.952540000000     0.537580000000     0.925560000000     0.391413   
C339     C      0.950770000000     0.877880000000     0.928350000000     0.393153   
C340     C      0.954850000000     0.537380000000     0.612600000000     0.389537   
C341     C      0.599630000000     0.537480000000     0.608590000000     0.39058    
C342     C      0.598400000000     0.877990000000     0.924550000000     0.39033    
C343     C      0.596760000000     0.537760000000     0.922560000000     0.389994   
C344     C      0.606780000000     0.878480000000     0.596200000000     0.396297   
C345     C      0.849060000000     0.786060000000     0.862390000000     0.391438   
C346     C      0.849580000000     0.626530000000     0.677710000000     0.390673   
C347     C      0.850940000000     0.786200000000     0.680160000000     0.390419   
C348     C      0.847200000000     0.626350000000     0.864810000000     0.392931   
C349     C      0.703230000000     0.626350000000     0.861880000000     0.390764   
C350     C      0.697610000000     0.785530000000     0.687600000000     0.39426    
C351     C      0.704620000000     0.626550000000     0.675870000000     0.390459   
C352     C      0.701530000000     0.786110000000     0.859150000000     0.39168    
C353     C      0.652760000000     0.609800000000     0.608770000000    -0.0138572  
C354     C      0.692010000000     0.570900000000     0.661830000000    -0.0124731  
C355     C      0.612760000000     0.593120000000     0.621820000000    -0.0118207  
C356     C      0.652050000000     0.554180000000     0.674920000000    -0.0125576  
C357     C      0.649540000000     0.554970000000     0.857000000000    -0.0132864  
C358     C      0.609810000000     0.593500000000     0.910130000000    -0.0122941  
C359     C      0.689570000000     0.570620000000     0.873420000000    -0.0120454  
C360     C      0.649790000000     0.609220000000     0.926560000000    -0.0127979  
C361     C      0.627430000000     0.823900000000     0.594550000000    -0.0111967  
C362     C      0.670650000000     0.862790000000     0.642270000000    -0.0116225  
C363     C      0.634310000000     0.801240000000     0.640310000000    -0.0135873  
C364     C      0.677520000000     0.840200000000     0.688120000000    -0.0121558  
C365     C      0.862800000000     0.570820000000     0.665040000000    -0.0119483  
C366     C      0.902360000000     0.609550000000     0.611980000000    -0.0125485  
C367     C      0.902780000000     0.554380000000     0.679320000000    -0.0136115  
C368     C      0.942300000000     0.593090000000     0.626370000000    -0.0125732  
C369     C      0.858580000000     0.841790000000     0.878780000000    -0.0124968  
C370     C      0.902210000000     0.803440000000     0.927070000000    -0.0125905  
C371     C      0.896700000000     0.860540000000     0.865000000000    -0.0109993  
C372     C      0.940400000000     0.822130000000     0.913310000000    -0.0115816  
C373     C      0.939640000000     0.593330000000     0.913000000000    -0.0124205  
C374     C      0.898980000000     0.554770000000     0.861080000000    -0.0129937  
C375     C      0.899910000000     0.609090000000     0.930420000000    -0.0121178  
C376     C      0.859310000000     0.570580000000     0.878550000000    -0.0119352  
C377     C      0.646890000000     0.803340000000     0.921830000000    -0.0111015  
C378     C      0.690420000000     0.841850000000     0.873660000000    -0.0113804  
C379     C      0.608720000000     0.822270000000     0.908680000000    -0.0124494  
C380     C      0.652170000000     0.860730000000     0.860570000000    -0.0131685  
C381     C      0.942370000000     0.822070000000     0.624660000000    -0.0125788  
C382     C      0.901090000000     0.860690000000     0.675800000000    -0.0133862  
C383     C      0.903570000000     0.803250000000     0.614520000000    -0.0114816  
C384     C      0.862270000000     0.841900000000     0.665670000000    -0.011477   
H673     H      0.940290000000     0.500080000000     0.520340000000     0.193877   
H674     H      0.523540000000     0.914790000000     0.904510000000     0.196227   
H675     H      0.611440000000     0.500130000000     0.514320000000     0.19474    
H676     H      0.528570000000     0.914100000000     0.629500000000     0.197294   
H677     H      0.987310000000     0.970130000000     0.831480000000     0.136585   
H678     H      0.578410000000     0.975470000000     0.817980000000     0.202023   
H679     H      0.668980000000     0.953830000000     0.963970000000     0.128004   
H680     H      0.677690000000     0.966350000000     0.570640000000     0.185319   
H681     H      0.565960000000     0.971450000000     0.703120000000     0.137837   
H682     H      0.978370000000     0.936830000000     0.714010000000     0.200048   
H683     H      0.882650000000     0.950490000000     0.572450000000     0.131352   
H684     H      0.875460000000     0.969590000000     0.970050000000     0.185724   
H685     H      0.674950000000     0.957270000000     0.635810000000     0.200525   
H686     H      0.975670000000     0.975100000000     0.716020000000     0.202961   
H687     H      0.873940000000     0.950060000000     0.912290000000     0.201485   
H688     H      0.571420000000     0.937530000000     0.820450000000     0.198016   
H689     H      0.861980000000     0.663800000000     0.770920000000     0.195472   
H690     H      0.776830000000     0.749910000000     0.657710000000     0.190912   
H691     H      0.690730000000     0.663920000000     0.768920000000     0.192874   
H692     H      0.775640000000     0.749210000000     0.882670000000     0.195756   
H693     H      0.819940000000     0.726130000000     0.583660000000     0.129583   
H694     H      0.737590000000     0.693300000000     0.573720000000     0.204428   
H695     H      0.631480000000     0.701830000000     0.713800000000     0.124658   
H696     H      0.625940000000     0.699840000000     0.820860000000     0.183569   
H697     H      0.739440000000     0.691160000000     0.956370000000     0.139265   
H698     H      0.814150000000     0.721080000000     0.965080000000     0.1921     
H699     H      0.919670000000     0.717230000000     0.820600000000     0.13441    
H700     H      0.926480000000     0.696780000000     0.719190000000     0.186735   
H701     H      0.627220000000     0.709280000000     0.885940000000     0.200275   
H702     H      0.851230000000     0.694650000000     0.968510000000     0.209671   
H703     H      0.926280000000     0.712810000000     0.658170000000     0.199956   
H704     H      0.718800000000     0.728980000000     0.575020000000     0.200192   
H705     H      0.706340000000     0.560270000000     0.625860000000     0.0371919  
H706     H      0.664590000000     0.601620000000     0.569460000000     0.0371579  
H707     H      0.591460000000     0.596410000000     0.587520000000     0.0431821  
H708     H      0.713440000000     0.567540000000     0.695980000000     0.0429505  
H709     H      0.659020000000     0.529380000000     0.679100000000     0.0392562  
H710     H      0.640300000000     0.562300000000     0.714310000000     0.0355149  
H711     H      0.645850000000     0.634600000000     0.604450000000     0.04533    
H712     H      0.598340000000     0.603810000000     0.657660000000     0.0378564  
H713     H      0.597220000000     0.604990000000     0.873870000000     0.0361904  
H714     H      0.639230000000     0.564290000000     0.817730000000     0.035621   
H715     H      0.712130000000     0.567480000000     0.840480000000     0.0435378  
H716     H      0.587140000000     0.596690000000     0.942910000000     0.0429975  
H717     H      0.643550000000     0.634030000000     0.932160000000     0.0404865  
H718     H      0.660020000000     0.599990000000     0.965930000000     0.0371036  
H719     H      0.655700000000     0.530160000000     0.851190000000     0.0426678  
H720     H      0.702220000000     0.559070000000     0.909580000000     0.0385316  
H721     H      0.696740000000     0.861440000000     0.613650000000     0.0371512  
H722     H      0.650080000000     0.819440000000     0.562150000000     0.0362918  
H723     H      0.634720000000     0.777890000000     0.622490000000     0.0432658  
H724     H      0.670470000000     0.886170000000     0.659900000000     0.0398021  
H725     H      0.708590000000     0.844610000000     0.704610000000     0.0429887  
H726     H      0.654970000000     0.844750000000     0.720600000000     0.0381165  
H727     H      0.596420000000     0.819460000000     0.577860000000     0.0430916  
H728     H      0.608110000000     0.802410000000     0.668780000000     0.0396615  
H729     H      0.891170000000     0.601060000000     0.572560000000     0.0375324  
H730     H      0.849010000000     0.559860000000     0.629050000000     0.0389068  
H731     H      0.896110000000     0.529580000000     0.684130000000     0.0439061  
H732     H      0.909120000000     0.634340000000     0.607330000000     0.0417725  
H733     H      0.964260000000     0.596360000000     0.592790000000     0.0430375  
H734     H      0.955950000000     0.603970000000     0.662530000000     0.0366084  
H735     H      0.841020000000     0.567630000000     0.698840000000     0.043615   
H736     H      0.914090000000     0.562920000000     0.718650000000     0.0361932  
H737     H      0.890980000000     0.810100000000     0.967540000000     0.0364896  
H738     H      0.844530000000     0.850960000000     0.916140000000     0.0368576  
H739     H      0.887650000000     0.885070000000     0.863410000000     0.038952   
H740     H      0.911180000000     0.778900000000     0.928950000000     0.042512   
H741     H      0.962850000000     0.818990000000     0.946370000000     0.0434834  
H742     H      0.954580000000     0.812860000000     0.876120000000     0.0380253  
H743     H      0.835960000000     0.844990000000     0.845960000000     0.0432691  
H744     H      0.907810000000     0.854010000000     0.824390000000     0.0374597  
H745     H      0.908660000000     0.563980000000     0.821480000000     0.0368261  
H746     H      0.951660000000     0.604760000000     0.876370000000     0.0385775  
H747     H      0.906130000000     0.633890000000     0.936170000000     0.041501   
H748     H      0.892670000000     0.529960000000     0.855610000000     0.0413507  
H749     H      0.836000000000     0.567350000000     0.846570000000     0.0432915  
H750     H      0.847380000000     0.559230000000     0.915310000000     0.0366453  
H751     H      0.962800000000     0.596520000000     0.945170000000     0.0436007  
H752     H      0.890130000000     0.599760000000     0.969900000000     0.0366717  
H753     H      0.704950000000     0.850990000000     0.910700000000     0.0381849  
H754     H      0.658160000000     0.809580000000     0.962470000000     0.0363159  
H755     H      0.586390000000     0.819010000000     0.941850000000     0.0430973  
H756     H      0.712560000000     0.845020000000     0.840240000000     0.0435797  
H757     H      0.661230000000     0.885250000000     0.859160000000     0.0441587  
H758     H      0.640780000000     0.854380000000     0.820040000000     0.0368472  
H759     H      0.637760000000     0.778840000000     0.922990000000     0.0392669  
H760     H      0.594340000000     0.813230000000     0.871450000000     0.0373647  
H761     H      0.914090000000     0.854440000000     0.715580000000     0.0368116  
H762     H      0.958470000000     0.812950000000     0.660600000000     0.0372237  
H763     H      0.912610000000     0.778720000000     0.612840000000     0.0369825  
H764     H      0.892100000000     0.885230000000     0.677620000000     0.0439325  
H765     H      0.841720000000     0.845120000000     0.700790000000     0.0432402  
H766     H      0.846110000000     0.851080000000     0.629820000000     0.0377921  
H767     H      0.963000000000     0.818810000000     0.589640000000     0.042905   
H768     H      0.890640000000     0.809430000000     0.574690000000     0.0354465  
N113     N      0.621090000000     0.560530000000     0.633210000000    -0.166173   
N114     N      0.683610000000     0.603480000000     0.650630000000    -0.165084   
N115     N      0.681750000000     0.603150000000     0.886050000000    -0.165734   
N116     N      0.617710000000     0.560980000000     0.897690000000    -0.165779   
N117     N      0.672490000000     0.808390000000     0.669290000000    -0.166081   
N118     N      0.632330000000     0.855660000000     0.613620000000    -0.16616    
N119     N      0.934000000000     0.560530000000     0.637900000000    -0.165484   
N120     N      0.871010000000     0.603380000000     0.653220000000    -0.165142   
N121     N      0.929350000000     0.854560000000     0.904530000000    -0.165925   
N122     N      0.869770000000     0.809380000000     0.887270000000    -0.165689   
N123     N      0.867590000000     0.603110000000     0.890440000000    -0.165814   
N124     N      0.931460000000     0.560800000000     0.900860000000    -0.166026   
N125     N      0.619760000000     0.854700000000     0.900360000000    -0.165076   
N126     N      0.679510000000     0.809400000000     0.882300000000    -0.165405   
N127     N      0.872630000000     0.809430000000     0.656310000000    -0.166086   
N128     N      0.931940000000     0.854530000000     0.633890000000    -0.165049   
O449     O      0.943860000000     0.905680000000     0.621380000000    -0.376433   
O450     O      0.981640000000     0.870620000000     0.575870000000    -0.373203   
O451     O      0.943310000000     0.509700000000     0.913480000000    -0.378327   
O452     O      0.980150000000     0.544770000000     0.960180000000    -0.373048   
O453     O      0.940900000000     0.905770000000     0.916990000000    -0.374579   
O454     O      0.979700000000     0.870760000000     0.961050000000    -0.373781   
O455     O      0.946140000000     0.509450000000     0.625100000000    -0.376023   
O456     O      0.981700000000     0.544660000000     0.577000000000    -0.372249   
O457     O      0.892500000000     0.958740000000     0.607130000000    -0.34157    
O458     O      0.975080000000     0.956220000000     0.695770000000    -0.528725   
O459     O      0.889490000000     0.959320000000     0.941010000000    -0.523866   
O460     O      0.964600000000     0.956270000000     0.841660000000    -0.3539     
O461     O      0.963980000000     0.928410000000     0.519380000000    -0.498256   
O462     O      0.964080000000     0.986900000000     0.519580000000    -0.630748   
O463     O      0.608640000000     0.509540000000     0.620570000000    -0.380625   
O464     O      0.571880000000     0.544820000000     0.574200000000    -0.372571   
O465     O      0.608050000000     0.905920000000     0.913120000000    -0.374655   
O466     O      0.569820000000     0.870810000000     0.957760000000    -0.371182   
O467     O      0.605520000000     0.509870000000     0.909760000000    -0.377723   
O468     O      0.569830000000     0.544920000000     0.958130000000    -0.372405   
O469     O      0.615800000000     0.906380000000     0.608250000000    -0.373287   
O470     O      0.575480000000     0.870960000000     0.567810000000    -0.373951   
O471     O      0.661600000000     0.961040000000     0.601830000000    -0.519318   
O472     O      0.582160000000     0.953300000000     0.692150000000    -0.36039    
O473     O      0.659220000000     0.958920000000     0.927420000000    -0.340338   
O474     O      0.576790000000     0.956720000000     0.838470000000    -0.531092   
O475     O      0.587650000000     0.986990000000     0.514950000000    -0.631842   
O476     O      0.587320000000     0.928760000000     0.514680000000    -0.497402   
O477     O      0.527430000000     0.987590000000     0.598830000000    -0.499284   
O478     O      0.524120000000     0.928160000000     0.935390000000    -0.633027   
O479     O      0.527670000000     0.927690000000     0.598920000000    -0.632484   
O480     O      0.524000000000     0.987650000000     0.935800000000    -0.498059   
O481     O      0.858800000000     0.758160000000     0.873960000000    -0.376547   
O482     O      0.820900000000     0.793190000000     0.828550000000    -0.374392   
O483     O      0.858410000000     0.654450000000     0.665290000000    -0.37147    
O484     O      0.822120000000     0.619260000000     0.712490000000    -0.372003   
O485     O      0.860420000000     0.758290000000     0.668420000000    -0.381314   
O486     O      0.822210000000     0.793360000000     0.713290000000    -0.374026   
O487     O      0.856390000000     0.654230000000     0.876990000000    -0.376091   
O488     O      0.820260000000     0.619170000000     0.829320000000    -0.372971   
O489     O      0.911370000000     0.704830000000     0.852040000000    -0.348892   
O490     O      0.833270000000     0.707510000000     0.947410000000    -0.527744   
O491     O      0.911590000000     0.705220000000     0.689110000000    -0.522558   
O492     O      0.834360000000     0.706860000000     0.592840000000    -0.351724   
O493     O      0.838380000000     0.735580000000     0.770780000000    -0.499295   
O494     O      0.838220000000     0.677010000000     0.770610000000    -0.632235   
O495     O      0.694410000000     0.654240000000     0.874540000000    -0.378917   
O496     O      0.730720000000     0.619160000000     0.827050000000    -0.372389   
O497     O      0.688670000000     0.757600000000     0.675510000000    -0.376235   
O498     O      0.728430000000     0.793020000000     0.716900000000    -0.374303   
O499     O      0.695720000000     0.654490000000     0.663740000000    -0.37571    
O500     O      0.731830000000     0.619210000000     0.710980000000    -0.371877   
O501     O      0.691780000000     0.758190000000     0.870510000000    -0.371876   
O502     O      0.730770000000     0.793260000000     0.826950000000    -0.370824   
O503     O      0.641370000000     0.704930000000     0.852740000000    -0.520893   
O504     O      0.719940000000     0.707730000000     0.947120000000    -0.360629   
O505     O      0.642550000000     0.703370000000     0.676910000000    -0.336128   
O506     O      0.726090000000     0.710300000000     0.593500000000    -0.53272    
O507     O      0.714540000000     0.677050000000     0.769280000000    -0.633622   
O508     O      0.714940000000     0.735270000000     0.769490000000    -0.495961   
O509     O      0.775980000000     0.676400000000     0.851440000000    -0.497673   
O510     O      0.776950000000     0.736280000000     0.688240000000    -0.632383   
O511     O      0.775910000000     0.735840000000     0.851810000000    -0.633531   
O512     O      0.777130000000     0.676410000000     0.688380000000    -0.495157   
Zr85     Zr     0.966850000000     0.957560000000     0.599660000000     1.37536    
Zr86     Zr     0.963300000000     0.957760000000     0.939300000000     1.376      
Zr87     Zr     0.588080000000     0.957750000000     0.595070000000     1.3752     
Zr88     Zr     0.584860000000     0.957900000000     0.934610000000     1.37535    
Zr89     Zr     0.525840000000     0.899750000000     0.516890000000     1.3789     
Zr90     Zr     0.525820000000     0.515940000000     0.517380000000     1.3762     
Zr91     Zr     0.836810000000     0.706210000000     0.850820000000     1.37447    
Zr92     Zr     0.837770000000     0.706370000000     0.690490000000     1.37247    
Zr93     Zr     0.715140000000     0.706170000000     0.849660000000     1.37388    
Zr94     Zr     0.716440000000     0.706270000000     0.689130000000     1.37526    
Zr95     Zr     0.776500000000     0.764230000000     0.770280000000     1.37832    
Zr96     Zr     0.776370000000     0.648070000000     0.769870000000     1.3765     


