data_structure

_audit_creation_method RASPA-1.0
_audit_creation_date 2023-6-4
_audit_author_name 'Poobodin Mano'

_cell_length_a    42.4322
_cell_length_b    45.4899
_cell_length_c    45.8189
_cell_angle_alpha 82.7708
_cell_angle_beta  96.3179
_cell_angle_gamma 119.441
_cell_volume      76289

_symmetry_cell_setting          triclinic
_symmetry_space_group_name_Hall 'P 1'
_symmetry_space_group_name_H-M  'P 1'
_symmetry_Int_Tables_number     1

_symmetry_equiv_pos_as_xyz 'x,y,z'

loop_
_atom_site_label
_atom_site_type_symbol
_atom_site_fract_x
_atom_site_fract_y
_atom_site_fract_z
_atom_site_charge
C1       C      0.118920000000     0.070230000000     0.014340000000     0.395367   
C2       C      0.948900000000     0.954930000000     0.895110000000     0.401131   
C3       C      0.035320000000     0.099880000000     0.972550000000     0.398014   
C4       C      0.039010000000     0.918030000000     0.957720000000     0.380749   
C5       C      0.961420000000     0.862810000000     0.015060000000     0.398654   
C6       C      0.955710000000     0.026840000000     0.052190000000     0.381926   
C7       C      0.876850000000     0.888230000000     0.978270000000     0.389585   
C8       C      0.035900000000     0.006390000000     0.094840000000     0.405553   
C9       C      0.008920000000     0.908600000000     0.452020000000     0.396618   
C10      C      0.870120000000     0.980020000000     0.467470000000     0.398008   
C11      C      0.014760000000     0.995430000000     0.395600000000     0.403797   
C12      C      0.874830000000     0.895900000000     0.534900000000     0.391675   
C13      C      0.956170000000     0.973500000000     0.596120000000     0.40517    
C14      C      0.097330000000     0.074280000000     0.456420000000     0.401844   
C15      C      0.958860000000     0.064070000000     0.532240000000     0.406787   
C16      C      0.104370000000     0.996490000000     0.523670000000     0.400335   
C17      C      0.035700000000     0.407920000000     0.962800000000     0.396499   
C18      C      0.923360000000     0.478310000000     0.050090000000     0.405448   
C19      C      0.919260000000     0.379700000000     0.945810000000     0.403601   
C20      C      0.044670000000     0.496860000000     0.079990000000     0.396222   
C21      C      0.084840000000     0.601250000000     0.010680000000     0.395846   
C22      C      0.956430000000     0.484990000000     0.876200000000     0.401831   
C23      C      0.961080000000     0.567710000000     0.996250000000     0.406751   
C24      C      0.071440000000     0.506440000000     0.901940000000     0.382251   
C25      C      0.971710000000     0.377210000000     0.502590000000     0.396288   
C26      C      0.874910000000     0.498910000000     0.479700000000     0.404653   
C27      C      0.913850000000     0.385460000000     0.427350000000     0.409478   
C28      C      0.944120000000     0.490860000000     0.570770000000     0.398148   
C29      C      0.045800000000     0.581090000000     0.532440000000     0.387294   
C30      C      0.025630000000     0.486490000000     0.384010000000     0.399227   
C31      C      0.984560000000     0.594680000000     0.447300000000     0.397666   
C32      C      0.086800000000     0.474460000000     0.474770000000     0.399153   
C33      C      0.379080000000     0.982370000000     0.947840000000     0.399223   
C34      C      0.524960000000     0.912550000000     0.948310000000     0.398828   
C35      C      0.384690000000     0.908760000000     0.016530000000     0.396527   
C36      C      0.527450000000     0.003030000000     0.877790000000     0.402074   
C37      C      0.607100000000     0.081110000000     0.933610000000     0.399879   
C38      C      0.471380000000     0.993180000000     0.077700000000     0.399956   
C39      C      0.613070000000     0.000560000000     0.007380000000     0.397575   
C40      C      0.470430000000     0.077630000000     0.008650000000     0.395714   
C41      C      0.509140000000     0.100300000000     0.459510000000     0.399692   
C42      C      0.367600000000     0.885500000000     0.474780000000     0.397008   
C43      C      0.443540000000     0.033390000000     0.540130000000     0.404893   
C44      C      0.432660000000     0.956630000000     0.381220000000     0.400325   
C45      C      0.521900000000     0.939420000000     0.414800000000     0.378542   
C46      C      0.540510000000     0.015150000000     0.576130000000     0.395476   
C47      C      0.451070000000     0.867970000000     0.503210000000     0.402713   
C48      C      0.604170000000     0.081030000000     0.486520000000     0.395025   
C49      C      0.481510000000     0.380680000000     0.035610000000     0.400017   
C50      C      0.390360000000     0.507960000000     0.004980000000     0.404441   
C51      C      0.422870000000     0.384810000000     0.964520000000     0.397968   
C52      C      0.453990000000     0.499260000000     0.096640000000     0.400144   
C53      C      0.560630000000     0.587190000000     0.057570000000     0.386674   
C54      C      0.538280000000     0.484310000000     0.914540000000     0.396122   
C55      C      0.504570000000     0.600850000000     0.972700000000     0.392075   
C56      C      0.593300000000     0.468050000000     0.015590000000     0.408102   
C57      C      0.511750000000     0.400890000000     0.487690000000     0.401269   
C58      C      0.404370000000     0.474100000000     0.575200000000     0.398626   
C59      C      0.400450000000     0.378690000000     0.470690000000     0.397702   
C60      C      0.521160000000     0.484760000000     0.609240000000     0.390042   
C61      C      0.573870000000     0.589710000000     0.547220000000     0.397286   
C62      C      0.449580000000     0.491190000000     0.401980000000     0.397599   
C63      C      0.451390000000     0.569800000000     0.524480000000     0.399201   
C64      C      0.554560000000     0.506370000000     0.428160000000     0.392989   
C65      C      0.569080000000     0.508510000000     0.839090000000    -0.0578805  
C66      C      0.534360000000     0.456910000000     0.652910000000     0.0673515  
C67      C      0.530430000000     0.506640000000     0.655960000000     0.0703511  
C68      C      0.539980000000     0.453630000000     0.683610000000    -0.0920773  
C69      C      0.519120000000     0.448780000000     0.750160000000    -0.0339331  
C70      C      0.521880000000     0.448670000000     0.780940000000    -0.0368271  
C71      C      0.546420000000     0.474740000000     0.733130000000    -0.007349   
C72      C      0.536920000000     0.504600000000     0.686500000000    -0.0923926  
C73      C      0.552300000000     0.474310000000     0.795330000000    -0.000288484
C74      C      0.537560000000     0.447910000000     0.847540000000    -0.0824061  
C75      C      0.580550000000     0.499110000000     0.778070000000    -0.0368673  
C76      C      0.535530000000     0.451130000000     0.877190000000     0.0644625  
C77      C      0.567890000000     0.511130000000     0.869110000000     0.0214804  
C78      C      0.577380000000     0.499580000000     0.747330000000    -0.0337437  
C79      C      0.541280000000     0.477680000000     0.700640000000     0.0490656  
C80      C      0.553250000000     0.476790000000     0.827750000000     0.0360004  
C81      C      0.590710000000     0.545260000000     0.880160000000     0.293219   
C82      C      0.438790000000     0.530720000000     0.162220000000    -0.0558708  
C83      C      0.442220000000     0.470140000000     0.355210000000     0.0744837  
C84      C      0.439720000000     0.520650000000     0.357790000000     0.0700591  
C85      C      0.437480000000     0.472850000000     0.324590000000    -0.090475   
C86      C      0.406670000000     0.475010000000     0.262110000000    -0.0331128  
C87      C      0.406750000000     0.476160000000     0.231540000000    -0.0369073  
C88      C      0.430580000000     0.503500000000     0.277270000000    -0.00639981 
C89      C      0.435510000000     0.524420000000     0.326960000000    -0.0909225  
C90      C      0.430960000000     0.505780000000     0.215300000000     0.000704293
C91      C      0.436270000000     0.476910000000     0.174920000000    -0.0834422  
C92      C      0.453220000000     0.535030000000     0.230200000000    -0.0365273  
C93      C      0.441210000000     0.475640000000     0.145750000000     0.0707539  
C94      C      0.442690000000     0.528500000000     0.132420000000     0.0275746  
C95      C      0.452990000000     0.533910000000     0.260940000000    -0.0318092  
C96      C      0.434290000000     0.500280000000     0.310020000000     0.0502896  
C97      C      0.435350000000     0.504680000000     0.183690000000     0.0391819  
C98      C      0.441070000000     0.554990000000     0.110850000000     0.294553   
C99      C      0.434640000000     0.628280000000     0.561750000000    -0.0581562  
C100     C      0.420830000000     0.810450000000     0.491530000000     0.0732723  
C101     C      0.443110000000     0.823880000000     0.540570000000     0.0726651  
C102     C      0.410590000000     0.776460000000     0.499360000000    -0.0940123  
C103     C      0.384490000000     0.703460000000     0.523450000000    -0.0336757  
C104     C      0.384620000000     0.672590000000     0.526010000000    -0.037954   
C105     C      0.413790000000     0.731960000000     0.535490000000    -0.0080822  
C106     C      0.432980000000     0.790100000000     0.549180000000    -0.0950348  
C107     C      0.414100000000     0.669800000000     0.540570000000    -0.000499427
C108     C      0.411220000000     0.625730000000     0.511520000000    -0.0845965  
C109     C      0.442120000000     0.697750000000     0.554250000000    -0.0373369  
C110     C      0.421890000000     0.602030000000     0.507980000000     0.0651647  
C111     C      0.446210000000     0.605170000000     0.557540000000     0.0199644  
C112     C      0.441940000000     0.728440000000     0.551760000000    -0.032675   
C113     C      0.417700000000     0.766170000000     0.528270000000     0.0512199  
C114     C      0.418470000000     0.639830000000     0.538370000000     0.0370084  
C115     C      0.466240000000     0.597570000000     0.583220000000     0.295824   
C116     C      0.510090000000     0.180000000000     0.428040000000    -0.0576293  
C117     C      0.534480000000     0.362090000000     0.502000000000     0.0723276  
C118     C      0.511140000000     0.365950000000     0.453010000000     0.078004   
C119     C      0.540420000000     0.336060000000     0.495440000000    -0.0926538  
C120     C      0.563580000000     0.291330000000     0.468010000000    -0.0334019  
C121     C      0.563890000000     0.261800000000     0.463060000000    -0.0369958  
C122     C      0.532300000000     0.294350000000     0.460630000000    -0.00746648 
C123     C      0.516520000000     0.340060000000     0.445830000000    -0.0938169  
C124     C      0.532680000000     0.234610000000     0.451130000000    -0.000376217
C125     C      0.545730000000     0.188800000000     0.473740000000    -0.0845151  
C126     C      0.501800000000     0.238260000000     0.442990000000    -0.036726   
C127     C      0.538830000000     0.155530000000     0.475430000000     0.0686222  
C128     C      0.502440000000     0.146070000000     0.430600000000     0.0232331  
C129     C      0.501690000000     0.267880000000     0.447550000000    -0.0329043  
C130     C      0.530630000000     0.324410000000     0.467250000000     0.0524726  
C131     C      0.530600000000     0.201220000000     0.450300000000     0.0384212  
C132     C      0.476770000000     0.124950000000     0.407620000000     0.28875    
C133     C      0.556790000000     0.048370000000     0.649120000000    -0.055592   
C134     C      0.565070000000     0.002790000000     0.842750000000     0.0742854  
C135     C      0.519410000000     0.017910000000     0.826850000000     0.0764351  
C136     C      0.575050000000     0.007350000000     0.813750000000    -0.0934672  
C137     C      0.560020000000     0.993720000000     0.746310000000    -0.033802   
C138     C      0.562850000000     0.996100000000     0.715920000000    -0.0367288  
C139     C      0.566140000000     0.021980000000     0.760120000000    -0.00755092 
C140     C      0.529330000000     0.023530000000     0.797820000000    -0.0940113  
C141     C      0.572510000000     0.027020000000     0.698780000000    -0.000251227
C142     C      0.575750000000     0.006360000000     0.651300000000    -0.0839974  
C143     C      0.581090000000     0.055830000000     0.713230000000    -0.0370585  
C144     C      0.566570000000     0.003360000000     0.621250000000     0.0670873  
C145     C      0.547610000000     0.044920000000     0.618890000000     0.0203176  
C146     C      0.577410000000     0.053210000000     0.743530000000    -0.0332304  
C147     C      0.557220000000     0.018040000000     0.791070000000     0.0523199  
C148     C      0.569670000000     0.028140000000     0.665930000000     0.0368274  
C149     C      0.528430000000     0.063260000000     0.604680000000     0.294646   
C150     C      0.482280000000     0.996600000000     0.158220000000    -0.0580809  
C151     C      0.416640000000     0.975600000000     0.334240000000     0.0724862  
C152     C      0.423400000000     0.926510000000     0.338970000000     0.0715036  
C153     C      0.414400000000     0.976210000000     0.303690000000    -0.094614   
C154     C      0.408030000000     0.931160000000     0.239800000000    -0.0335998  
C155     C      0.414330000000     0.937150000000     0.209620000000    -0.0374235  
C156     C      0.424490000000     0.958050000000     0.258120000000    -0.00732029 
C157     C      0.421680000000     0.926600000000     0.308160000000    -0.0915467  
C158     C      0.437670000000     0.970000000000     0.197460000000    -0.000310178
C159     C      0.419060000000     0.964910000000     0.143540000000    -0.0834768  
C160     C      0.453900000000     0.996740000000     0.215830000000    -0.0374643  
C161     C      0.428110000000     0.972590000000     0.114070000000     0.0658673  
C162     C      0.490760000000     0.004430000000     0.128530000000     0.0226312  
C163     C      0.447420000000     0.990850000000     0.245700000000    -0.0326154  
C164     C      0.418890000000     0.952700000000     0.290230000000     0.0501466  
C165     C      0.446340000000     0.976670000000     0.165980000000     0.0370008  
C166     C      0.528710000000     0.030260000000     0.122250000000     0.293539   
C167     C      0.509880000000     0.684680000000     0.974210000000    -0.0559227  
C168     C      0.566420000000     0.893830000000     0.938790000000     0.0731916  
C169     C      0.503140000000     0.855960000000     0.937310000000     0.0744302  
C170     C      0.573160000000     0.867070000000     0.935810000000    -0.0919064  
C171     C      0.564310000000     0.794920000000     0.960410000000    -0.0324843  
C172     C      0.560510000000     0.762380000000     0.965120000000    -0.0375061  
C173     C      0.549250000000     0.804300000000     0.934530000000    -0.00769597 
C174     C      0.508800000000     0.829160000000     0.933260000000    -0.0935867  
C175     C      0.542270000000     0.739000000000     0.943760000000    -0.000521136
C176     C      0.542860000000     0.686190000000     0.934360000000    -0.0829918  
C177     C      0.529710000000     0.749260000000     0.916930000000    -0.0373731  
C178     C      0.532520000000     0.652020000000     0.941870000000     0.0642332  
C179     C      0.499020000000     0.650180000000     0.981110000000     0.0305807  
C180     C      0.532810000000     0.781560000000     0.912480000000    -0.0338807  
C181     C      0.544030000000     0.834270000000     0.933420000000     0.051157   
C182     C      0.532180000000     0.702950000000     0.951040000000     0.0388865  
C183     C      0.471840000000     0.633080000000     0.003910000000     0.28572    
C184     C      0.493420000000     0.305640000000     0.037880000000    -0.0587445  
C185     C      0.431850000000     0.094670000000     0.027950000000     0.0715248  
C186     C      0.491740000000     0.135400000000     0.016000000000     0.0737099  
C187     C      0.426030000000     0.120240000000     0.036460000000    -0.0908449  
C188     C      0.422240000000     0.188880000000     0.031150000000    -0.0335831  
C189     C      0.423730000000     0.219880000000     0.034400000000    -0.0365338  
C190     C      0.450000000000     0.182180000000     0.043990000000    -0.00660919 
C191     C      0.487080000000     0.161150000000     0.024730000000    -0.0920855  
C192     C      0.452980000000     0.244460000000     0.050530000000    -0.00125863 
C193     C      0.435700000000     0.289250000000     0.056310000000    -0.0845186  
C194     C      0.478830000000     0.236380000000     0.065400000000    -0.0368717  
C195     C      0.444550000000     0.323520000000     0.053840000000     0.0655282  
C196     C      0.501770000000     0.339670000000     0.035620000000     0.0253059  
C197     C      0.477340000000     0.205630000000     0.062190000000    -0.0332014  
C198     C      0.454080000000     0.153900000000     0.035150000000     0.0503807  
C199     C      0.460310000000     0.280120000000     0.048140000000     0.0366273  
C200     C      0.539580000000     0.365200000000     0.028770000000     0.290548   
C201     C      0.828740000000     0.310350000000     0.415000000000    -0.0577749  
C202     C      0.646600000000     0.137490000000     0.499110000000     0.0701314  
C203     C      0.664240000000     0.108620000000     0.470540000000     0.0704001  
C204     C      0.680220000000     0.166900000000     0.495470000000    -0.0906796  
C205     C      0.740050000000     0.229740000000     0.464220000000    -0.0329372  
C206     C      0.770630000000     0.258500000000     0.453410000000    -0.0373657  
C207     C      0.740180000000     0.198820000000     0.470930000000    -0.00665162 
C208     C      0.697770000000     0.137270000000     0.466540000000    -0.0920617  
C209     C      0.802140000000     0.257120000000     0.448710000000     2.63892e-05
C210     C      0.869640000000     0.296060000000     0.445940000000    -0.0820905  
C211     C      0.802810000000     0.226550000000     0.456530000000    -0.0370929  
C212     C      0.898200000000     0.328150000000     0.437930000000     0.0696905  
C213     C      0.857800000000     0.342480000000     0.407620000000     0.0244045  
C214     C      0.772260000000     0.197810000000     0.467600000000    -0.0333601  
C215     C      0.706040000000     0.167210000000     0.478460000000     0.0492157  
C216     C      0.834000000000     0.287850000000     0.436110000000     0.0370307  
C217     C      0.851340000000     0.365240000000     0.384330000000     0.288711   
C218     C      0.101710000000     0.672620000000     0.517970000000    -0.0594139  
C219     C      0.323870000000     0.830020000000     0.460460000000     0.0696005  
C220     C      0.311940000000     0.853690000000     0.498240000000     0.0692915  
C221     C      0.290510000000     0.800270000000     0.464290000000    -0.0913195  
C222     C      0.229130000000     0.733620000000     0.490470000000    -0.0337609  
C223     C      0.197620000000     0.704340000000     0.499330000000    -0.0380199  
C224     C      0.232630000000     0.765810000000     0.491720000000    -0.00701598 
C225     C      0.279040000000     0.824550000000     0.502800000000    -0.0920871  
C226     C      0.168960000000     0.706440000000     0.510110000000    -0.000664327
C227     C      0.139350000000     0.647600000000     0.535280000000    -0.0851042  
C228     C      0.172070000000     0.738620000000     0.510400000000    -0.0373922  
C229     C      0.108380000000     0.617240000000     0.542450000000     0.0613424  
C230     C      0.070970000000     0.642110000000     0.526750000000     0.0187898  
C231     C      0.203200000000     0.767780000000     0.500990000000    -0.0334668  
C232     C      0.267620000000     0.797270000000     0.485780000000     0.0486577  
C233     C      0.136230000000     0.675180000000     0.521070000000     0.0335165  
C234     C      0.036460000000     0.642920000000     0.527780000000     0.294163   
C235     C      0.629040000000     0.493980000000     0.411780000000    -0.0592291  
C236     C      0.843800000000     0.528850000000     0.488080000000     0.0812985  
C237     C      0.813370000000     0.478700000000     0.463210000000     0.076301   
C238     C      0.814860000000     0.535510000000     0.480250000000    -0.0910927  
C239     C      0.740720000000     0.533540000000     0.468600000000    -0.0332022  
C240     C      0.709910000000     0.536250000000     0.458320000000    -0.0377534  
C241     C      0.755750000000     0.521150000000     0.450830000000    -0.00717065 
C242     C      0.784060000000     0.484170000000     0.455500000000    -0.0945284  
C243     C      0.693610000000     0.526480000000     0.430220000000    -0.000193131
C244     C      0.651710000000     0.550740000000     0.424920000000    -0.0839822  
C245     C      0.709800000000     0.515930000000     0.411890000000    -0.0377469  
C246     C      0.616400000000     0.545550000000     0.422350000000     0.0697809  
C247     C      0.593650000000     0.489440000000     0.409220000000     0.0241747  
C248     C      0.740740000000     0.513590000000     0.421990000000    -0.032118   
C249     C      0.785290000000     0.513700000000     0.462570000000     0.0529816  
C250     C      0.657930000000     0.524080000000     0.421480000000     0.0386259  
C251     C      0.564440000000     0.458340000000     0.396260000000     0.290497   
C252     C      0.148440000000     0.438990000000     0.494010000000    -0.0564161  
C253     C      0.340730000000     0.442800000000     0.579970000000     0.074292   
C254     C      0.370690000000     0.502730000000     0.577610000000     0.0730793  
C255     C      0.307400000000     0.441710000000     0.572800000000    -0.0924309  
C256     C      0.277980000000     0.493810000000     0.524230000000    -0.0329123  
C257     C      0.247800000000     0.492170000000     0.507410000000    -0.0376732  
C258     C      0.273740000000     0.471610000000     0.549600000000    -0.00666384 
C259     C      0.337840000000     0.502630000000     0.570220000000    -0.0904464  
C260     C      0.212620000000     0.468410000000     0.515610000000     0.000144524
C261     C      0.181590000000     0.499780000000     0.490480000000    -0.0851313  
C262     C      0.208320000000     0.445970000000     0.540850000000    -0.0369555  
C263     C      0.150130000000     0.500370000000     0.479440000000     0.0727959  
C264     C      0.116950000000     0.440170000000     0.482170000000     0.0202044  
C265     C      0.238600000000     0.447480000000     0.557640000000    -0.0328743  
C266     C      0.306180000000     0.471960000000     0.565680000000     0.0510095  
C267     C      0.180650000000     0.468920000000     0.499290000000     0.0383227  
C268     C      0.083730000000     0.407100000000     0.478840000000     0.286493   
C269     C      0.931980000000     0.460750000000     0.799690000000    -0.0570092  
C270     C      0.939480000000     0.520880000000     0.608130000000     0.0715939  
C271     C      0.927740000000     0.464170000000     0.618870000000     0.0719719  
C272     C      0.935290000000     0.522820000000     0.637680000000    -0.0897573  
C273     C      0.952160000000     0.524160000000     0.704950000000    -0.0330591  
C274     C      0.954070000000     0.522940000000     0.735770000000    -0.0361496  
C275     C      0.925600000000     0.496330000000     0.690160000000    -0.00633645 
C276     C      0.923040000000     0.465140000000     0.648230000000    -0.0921623  
C277     C      0.929550000000     0.493850000000     0.752340000000    -0.000111375
C278     C      0.941210000000     0.516970000000     0.801670000000    -0.0833778  
C279     C      0.901710000000     0.466930000000     0.737440000000    -0.036997   
C280     C      0.946610000000     0.513600000000     0.832250000000     0.0682432  
C281     C      0.936990000000     0.457670000000     0.830520000000     0.0253281  
C282     C      0.899690000000     0.468200000000     0.706730000000    -0.0332394  
C283     C      0.927340000000     0.494780000000     0.658180000000     0.0498539  
C284     C      0.934290000000     0.490570000000     0.785000000000     0.038254   
C285     C      0.928320000000     0.423410000000     0.844510000000     0.292175   
C286     C      0.048600000000     0.460110000000     0.319630000000    -0.0570408  
C287     C      0.047200000000     0.517510000000     0.125820000000     0.0759786  
C288     C      0.059810000000     0.472310000000     0.125060000000     0.0693772  
C289     C      0.048030000000     0.513820000000     0.156440000000    -0.0932379  
C290     C      0.018880000000     0.480050000000     0.215290000000    -0.0319871  
C291     C      0.016010000000     0.477990000000     0.245530000000    -0.0352095  
C292     C      0.049120000000     0.481420000000     0.204090000000    -0.0072083  
C293     C      0.060890000000     0.467950000000     0.155970000000    -0.0908689  
C294     C      0.043340000000     0.477350000000     0.265430000000    -7.04765e-05
C295     C      0.035160000000     0.505430000000     0.304760000000    -0.0849828  
C296     C      0.072570000000     0.476530000000     0.254430000000    -0.0362122  
C297     C      0.031970000000     0.507860000000     0.334050000000     0.0690833  
C298     C      0.045840000000     0.463390000000     0.349400000000     0.0251516  
C299     C      0.075410000000     0.478500000000     0.223900000000    -0.0324506  
C300     C      0.053540000000     0.488050000000     0.171860000000     0.0508266  
C301     C      0.042360000000     0.480720000000     0.297080000000     0.0394573  
C302     C      0.058450000000     0.444710000000     0.372250000000     0.295159   
C303     C      0.679290000000     0.164700000000     0.907050000000    -0.0581568  
C304     C      0.894350000000     0.337360000000     0.911000000000     0.0804445  
C305     C      0.872180000000     0.324300000000     0.958830000000     0.0770478  
C306     C      0.868050000000     0.304990000000     0.903080000000    -0.0905471  
C307     C      0.788720000000     0.246110000000     0.892300000000    -0.0325241  
C308     C      0.755580000000     0.216300000000     0.889460000000    -0.0365146  
C309     C      0.813410000000     0.248450000000     0.916150000000    -0.00675511 
C310     C      0.846430000000     0.291840000000     0.951940000000    -0.0937474  
C311     C      0.746690000000     0.188250000000     0.910330000000    -0.000559412
C312     C      0.702900000000     0.125950000000     0.918130000000    -0.0842058  
C313     C      0.772790000000     0.189800000000     0.932720000000    -0.0367939  
C314     C      0.667840000000     0.099740000000     0.923140000000     0.0660442  
C315     C      0.644130000000     0.137830000000     0.911730000000     0.0231372  
C316     C      0.805730000000     0.219580000000     0.935640000000    -0.0338624  
C317     C      0.843640000000     0.281930000000     0.923730000000     0.0525616  
C318     C      0.709170000000     0.159130000000     0.911100000000     0.037104   
C319     C      0.613280000000     0.144460000000     0.902660000000     0.293149   
C320     C      0.135570000000     0.676550000000     0.053790000000    -0.0583444  
C321     C      0.346460000000     0.850410000000     0.030060000000     0.0700293  
C322     C      0.324260000000     0.889030000000     0.030620000000     0.07002    
C323     C      0.312810000000     0.823220000000     0.036960000000    -0.0941888  
C324     C      0.218740000000     0.795740000000     0.021770000000    -0.0339424  
C325     C      0.187280000000     0.764410000000     0.019510000000    -0.0382215  
C326     C      0.246940000000     0.798990000000     0.042570000000    -0.0082247  
C327     C      0.289650000000     0.862070000000     0.036750000000    -0.0932522  
C328     C      0.183300000000     0.735910000000     0.038220000000    -0.0012244  
C329     C      0.149260000000     0.691820000000     0.002860000000    -0.0872948  
C330     C      0.210090000000     0.740050000000     0.060750000000    -0.0374853  
C331     C      0.126170000000     0.658310000000     0.996950000000     0.0668736  
C332     C      0.112460000000     0.642630000000     0.047420000000     0.0223841  
C333     C      0.241670000000     0.771240000000     0.062810000000    -0.0339098  
C334     C      0.283660000000     0.828680000000     0.039660000000     0.0493694  
C335     C      0.154580000000     0.701310000000     0.031520000000     0.0375275  
C336     C      0.097910000000     0.617440000000     0.073130000000     0.290133   
C337     C      0.668590000000     0.461970000000     0.057280000000    -0.0590808  
C338     C      0.865570000000     0.447440000000     0.069820000000     0.0760871  
C339     C      0.893450000000     0.507270000000     0.062200000000     0.0783829  
C340     C      0.831820000000     0.445140000000     0.070990000000    -0.0922556  
C341     C      0.785400000000     0.488250000000     0.032410000000    -0.0336403  
C342     C      0.750320000000     0.482690000000     0.024060000000    -0.0348338  
C343     C      0.791930000000     0.471080000000     0.058080000000    -0.00458116 
C344     C      0.859830000000     0.505890000000     0.062540000000    -0.087111   
C345     C      0.721280000000     0.460110000000     0.041370000000    -0.00119393 
C346     C      0.667460000000     0.451710000000     0.006840000000    -0.0854394  
C347     C      0.727800000000     0.442820000000     0.066910000000    -0.0358503  
C348     C      0.634550000000     0.452200000000     0.001450000000     0.0690641  
C349     C      0.635810000000     0.462330000000     0.051490000000     0.0327244  
C350     C      0.762740000000     0.448190000000     0.075150000000    -0.0336191  
C351     C      0.828340000000     0.474340000000     0.065120000000     0.0523782  
C352     C      0.685120000000     0.457500000000     0.034890000000     0.0407075  
C353     C      0.618090000000     0.463360000000     0.077420000000     0.296732   
C354     C      0.296100000000     0.489040000000     0.992440000000    -0.0564168  
C355     C      0.135050000000     0.544580000000     0.905520000000     0.0717443  
C356     C      0.113370000000     0.485580000000     0.906150000000     0.0661737  
C357     C      0.169680000000     0.549830000000     0.915500000000    -0.0879181  
C358     C      0.243050000000     0.547880000000     0.930470000000    -0.0333225  
C359     C      0.273580000000     0.548130000000     0.945940000000    -0.0367382  
C360     C      0.208240000000     0.525130000000     0.940020000000    -0.00659938 
C361     C      0.147330000000     0.489790000000     0.916410000000    -0.0918178  
C362     C      0.269630000000     0.525870000000     0.971300000000     0.000141431
C363     C      0.335170000000     0.549400000000     0.989310000000    -0.0821031  
C364     C      0.234870000000     0.504850000000     0.981770000000    -0.0371219  
C365     C      0.364490000000     0.544060000000     0.999160000000     0.0734755  
C366     C      0.325780000000     0.484340000000     0.002600000000     0.024664   
C367     C      0.204550000000     0.504350000000     0.966220000000    -0.0317209  
C368     C      0.175270000000     0.521900000000     0.922830000000     0.0506272  
C369     C      0.300730000000     0.521630000000     0.984870000000     0.038595   
C370     C      0.318240000000     0.449390000000     0.013770000000     0.291984   
C371     C      0.789370000000     0.842900000000     0.574310000000    -0.0557561  
C372     C      0.634930000000     0.633700000000     0.547120000000     0.0718366  
C373     C      0.595010000000     0.635230000000     0.578510000000     0.0686677  
C374     C      0.662820000000     0.664350000000     0.555990000000    -0.0950982  
C375     C      0.720720000000     0.719120000000     0.592380000000    -0.034339   
C376     C      0.751530000000     0.750900000000     0.590010000000    -0.0377381  
C377     C      0.686410000000     0.715360000000     0.582940000000    -0.00758077 
C378     C      0.622410000000     0.666780000000     0.587380000000    -0.0894472  
C379     C      0.748660000000     0.779540000000     0.578080000000    -0.000391356
C380     C      0.804670000000     0.808030000000     0.550530000000    -0.0831667  
C381     C      0.714020000000     0.776390000000     0.571560000000    -0.0373844  
C382     C      0.834830000000     0.836880000000     0.539800000000     0.0634427  
C383     C      0.820300000000     0.872010000000     0.563370000000     0.0194766  
C384     C      0.683020000000     0.744410000000     0.573950000000    -0.0334237  
C385     C      0.656730000000     0.681510000000     0.575980000000     0.0494269  
C386     C      0.781530000000     0.810700000000     0.568000000000     0.0365148  
C387     C      0.826320000000     0.904530000000     0.572520000000     0.297483   
C388     C      0.168060000000     0.159330000000     0.431730000000    -0.0570784  
C389     C      0.377610000000     0.336460000000     0.435990000000     0.0702608  
C390     C      0.354260000000     0.322700000000     0.483440000000     0.0709549  
C391     C      0.352840000000     0.303670000000     0.428110000000    -0.0928105  
C392     C      0.275540000000     0.242670000000     0.416540000000    -0.032612   
C393     C      0.243420000000     0.212080000000     0.413350000000    -0.037017   
C394     C      0.299960000000     0.245990000000     0.440840000000    -0.00756714 
C395     C      0.329980000000     0.289810000000     0.476570000000    -0.0942617  
C396     C      0.235370000000     0.184240000000     0.434270000000    -0.000203571
C397     C      0.193080000000     0.121530000000     0.440960000000    -0.0841057  
C398     C      0.261370000000     0.186770000000     0.457080000000    -0.0366076  
C399     C      0.158290000000     0.094600000000     0.445630000000     0.0695216  
C400     C      0.133290000000     0.131840000000     0.436270000000     0.0252119  
C401     C      0.293270000000     0.217400000000     0.460390000000    -0.0335847  
C402     C      0.328650000000     0.280020000000     0.448590000000     0.0503857  
C403     C      0.198390000000     0.154500000000     0.434900000000     0.0384403  
C404     C      0.101850000000     0.137860000000     0.428230000000     0.291592   
C405     C      0.790110000000     0.979910000000     0.426080000000    -0.0559905  
C406     C      0.551250000000     0.905630000000     0.424350000000     0.0616657  
C407     C      0.579510000000     0.958630000000     0.396330000000     0.0689214  
C408     C      0.583730000000     0.904220000000     0.427070000000    -0.0951475  
C409     C      0.663630000000     0.932810000000     0.451340000000    -0.0337777  
C410     C      0.699440000000     0.939940000000     0.458560000000    -0.0375879  
C411     C      0.651060000000     0.933690000000     0.421800000000    -0.00741858 
C412     C      0.611990000000     0.957600000000     0.397900000000    -0.0917952  
C413     C      0.723500000000     0.947490000000     0.436380000000     0.000904097
C414     C      0.772160000000     0.943220000000     0.470570000000    -0.0786473  
C415     C      0.710270000000     0.947110000000     0.406730000000    -0.0374668  
C416     C      0.808470000000     0.952910000000     0.478210000000     0.0648584  
C417     C      0.826690000000     0.989240000000     0.434140000000     0.0218241  
C418     C      0.674620000000     0.940710000000     0.399540000000    -0.0330911  
C419     C      0.614850000000     0.931040000000     0.414620000000     0.0469526  
C420     C      0.762310000000     0.956620000000     0.444220000000     0.0353911  
C421     C      0.854640000000     0.017500000000     0.415830000000     0.292985   
C422     C      0.189820000000     0.010050000000     0.565370000000    -0.0570718  
C423     C      0.419770000000     0.071330000000     0.533420000000     0.0695135  
C424     C      0.404060000000     0.030160000000     0.574130000000     0.0796764  
C425     C      0.388800000000     0.074310000000     0.536130000000    -0.0900845  
C426     C      0.317720000000     0.073810000000     0.543750000000    -0.0334169  
C427     C      0.281530000000     0.067060000000     0.539890000000    -0.0372661  
C428     C      0.326260000000     0.048480000000     0.556360000000    -0.00612688 
C429     C      0.374280000000     0.033850000000     0.578510000000    -0.0917462  
C430     C      0.253150000000     0.035090000000     0.549070000000    -0.000283538
C431     C      0.201480000000     0.031550000000     0.514910000000    -0.0839434  
C432     C      0.261610000000     0.010180000000     0.562350000000    -0.0370602  
C433     C      0.164470000000     0.020040000000     0.509000000000     0.067883   
C434     C      0.152540000000     0.998480000000     0.558970000000     0.0225669  
C435     C      0.297450000000     0.016600000000     0.565640000000    -0.032605   
C436     C      0.364110000000     0.053520000000     0.557710000000     0.0488376  
C437     C      0.214540000000     0.026530000000     0.543290000000     0.0373586  
C438     C      0.128080000000     0.976900000000     0.582740000000     0.287516   
C439     C      0.973460000000     0.669700000000     0.450110000000    -0.0572938  
C440     C      0.984540000000     0.861740000000     0.423360000000     0.0733929  
C441     C      0.044640000000     0.883330000000     0.444010000000     0.069712   
C442     C      0.985320000000     0.833880000000     0.414720000000    -0.0937044  
C443     C      0.977050000000     0.765100000000     0.423440000000    -0.0333701  
C444     C      0.973190000000     0.732830000000     0.424510000000    -0.0394516  
C445     C      0.011420000000     0.794200000000     0.421820000000    -0.00543949 
C446     C      0.045580000000     0.854520000000     0.437200000000    -0.0904554  
C447     C      0.003590000000     0.728150000000     0.425110000000     0.00358249 
C448     C      0.017990000000     0.682510000000     0.415610000000    -0.0786251  
C449     C      0.037970000000     0.756960000000     0.422410000000    -0.0376014  
C450     C      0.011610000000     0.649030000000     0.420750000000     0.0680374  
C451     C      0.966490000000     0.636070000000     0.454050000000     0.0266077  
C452     C      0.041840000000     0.789650000000     0.420660000000    -0.0329852  
C453     C      0.014850000000     0.828380000000     0.423630000000     0.0500185  
C454     C      0.998870000000     0.693220000000     0.430490000000     0.0356687  
C455     C      0.933940000000     0.611940000000     0.470290000000     0.292064   
C456     C      0.977670000000     0.144560000000     0.556130000000    -0.05717    
C457     C      0.949290000000     0.325020000000     0.533140000000     0.0688656  
C458     C      0.977400000000     0.331150000000     0.489200000000     0.0668781  
C459     C      0.943690000000     0.291870000000     0.539140000000    -0.0924043  
C460     C      0.920910000000     0.216150000000     0.537170000000    -0.0331878  
C461     C      0.918620000000     0.184100000000     0.542720000000    -0.037633   
C462     C      0.952720000000     0.244260000000     0.526610000000    -0.00690582 
C463     C      0.972270000000     0.298300000000     0.494520000000    -0.0937419  
C464     C      0.948300000000     0.179800000000     0.538160000000     0.00164411 
C465     C      0.917080000000     0.116610000000     0.534130000000    -0.0798708  
C466     C      0.979990000000     0.208040000000     0.527680000000    -0.038058   
C467     C      0.920090000000     0.087280000000     0.534000000000     0.0662913  
C468     C      0.980130000000     0.115040000000     0.555670000000     0.0238921  
C469     C      0.982210000000     0.239760000000     0.522090000000    -0.0328737  
C470     C      0.955670000000     0.278320000000     0.519880000000     0.0488821  
C471     C      0.947010000000     0.146290000000     0.543590000000     0.0367268  
C472     C      0.012410000000     0.113810000000     0.571040000000     0.291307   
C473     C      0.905270000000     0.960880000000     0.660960000000    -0.0568834  
C474     C      0.919070000000     0.916490000000     0.857520000000     0.0717192  
C475     C      0.938800000000     0.975070000000     0.846600000000     0.0719944  
C476     C      0.907700000000     0.910640000000     0.827950000000    -0.0925475  
C477     C      0.914420000000     0.912010000000     0.762360000000    -0.0330242  
C478     C      0.916350000000     0.914140000000     0.731860000000    -0.0367553  
C479     C      0.906190000000     0.933830000000     0.775030000000    -0.00702597 
C480     C      0.928210000000     0.970230000000     0.817080000000    -0.0937581  
C481     C      0.911090000000     0.938770000000     0.713440000000     0.000574722
C482     C      0.950610000000     0.943830000000     0.674170000000    -0.0835094  
C483     C      0.899590000000     0.958350000000     0.726000000000    -0.0365316  
C484     C      0.962280000000     0.954000000000     0.645640000000     0.0691983  
C485     C      0.919230000000     0.973280000000     0.632950000000     0.0274979  
C486     C      0.896510000000     0.955420000000     0.756300000000    -0.0327716  
C487     C      0.912920000000     0.937850000000     0.807180000000     0.0504141  
C488     C      0.921400000000     0.946660000000     0.682180000000     0.0394715  
C489     C      0.907990000000     0.996690000000     0.615270000000     0.295981   
C490     C      0.063540000000     0.048840000000     0.164300000000    -0.0582095  
C491     C      0.057280000000     0.005480000000     0.360510000000     0.0741354  
C492     C      0.999720000000     0.000000000000     0.344310000000     0.0700034  
C493     C      0.067480000000     0.011970000000     0.331470000000    -0.0918719  
C494     C      0.071780000000     0.004770000000     0.266990000000    -0.0332994  
C495     C      0.076630000000     0.007530000000     0.236920000000    -0.0364813  
C496     C      0.053100000000     0.019370000000     0.277340000000    -0.00618219 
C497     C      0.008920000000     0.006120000000     0.315120000000    -0.0890721  
C498     C      0.062610000000     0.024690000000     0.216650000000    -0.000320464
C499     C      0.052470000000     0.991580000000     0.173880000000    -0.08458    
C500     C      0.045940000000     0.041030000000     0.227330000000    -0.0359333  
C501     C      0.044900000000     0.987530000000     0.143920000000     0.0695251  
C502     C      0.054120000000     0.043800000000     0.134330000000     0.0299112  
C503     C      0.041510000000     0.038610000000     0.257320000000    -0.0326714  
C504     C      0.043280000000     0.012660000000     0.308410000000     0.0503781  
C505     C      0.061180000000     0.022240000000     0.184510000000     0.0400931  
C506     C      0.050350000000     0.071450000000     0.116220000000     0.293444   
C507     C      0.620170000000     0.678950000000     0.043230000000    -0.0589732  
C508     C      0.839420000000     0.828420000000     0.975770000000     0.0685211  
C509     C      0.814340000000     0.861460000000     0.987740000000     0.0693781  
C510     C      0.807480000000     0.798570000000     0.983190000000    -0.0905324  
C511     C      0.732770000000     0.737690000000     0.993390000000    -0.0305061  
C512     C      0.702750000000     0.708600000000     0.004840000000    -0.0406532  
C513     C      0.745710000000     0.769090000000     0.005070000000    -0.00910846 
C514     C      0.781880000000     0.832350000000     0.994510000000    -0.0906625  
C515     C      0.684540000000     0.710240000000     0.027910000000     0.00058741 
C516     C      0.655060000000     0.649930000000     0.048820000000    -0.0854046  
C517     C      0.697030000000     0.741480000000     0.039420000000    -0.0385626  
C518     C      0.624460000000     0.620320000000     0.058230000000     0.0587334  
C519     C      0.589530000000     0.648690000000     0.052880000000     0.0228194  
C520     C      0.727410000000     0.770400000000     0.028400000000    -0.031999   
C521     C      0.778500000000     0.800220000000     0.993690000000     0.0487791  
C522     C      0.652770000000     0.679300000000     0.040020000000     0.0341426  
C523     C      0.557630000000     0.651280000000     0.060010000000     0.293927   
C524     C      0.197440000000     0.155630000000     0.024560000000    -0.0566788  
C525     C      0.409530000000     0.327110000000     0.974230000000     0.0700596  
C526     C      0.364250000000     0.340360000000     0.952400000000     0.0716662  
C527     C      0.383210000000     0.293070000000     0.979800000000    -0.0907932  
C528     C      0.291870000000     0.228650000000     0.958880000000    -0.0341684  
C529     C      0.261200000000     0.198320000000     0.967200000000    -0.0381452  
C530     C      0.317270000000     0.248430000000     0.980290000000    -0.00746186 
C531     C      0.337660000000     0.306580000000     0.956580000000    -0.0938276  
C532     C      0.254820000000     0.187500000000     0.997120000000     0.00112232 
C533     C      0.212040000000     0.126120000000     0.993240000000    -0.084265   
C534     C      0.280470000000     0.207020000000     0.018600000000    -0.0392775  
C535     C      0.178930000000     0.097340000000     0.998670000000     0.0651199  
C536     C      0.164000000000     0.126090000000     0.029920000000     0.0223327  
C537     C      0.311670000000     0.237080000000     0.010230000000    -0.0342992  
C538     C      0.346690000000     0.282820000000     0.971590000000     0.0488625  
C539     C      0.221190000000     0.155980000000     0.005450000000     0.034786   
C540     C      0.142210000000     0.127010000000     0.052660000000     0.290848   
C541     C      0.691940000000     0.000590000000     0.050740000000    -0.0580432  
C542     C      0.926910000000     0.061100000000     0.042800000000     0.0653628  
C543     C      0.901510000000     0.010790000000     0.074600000000     0.0757761  
C544     C      0.894360000000     0.062410000000     0.041250000000    -0.0943698  
C545     C      0.821800000000     0.061360000000     0.042970000000    -0.0338849  
C546     C      0.786750000000     0.057110000000     0.036530000000    -0.0374972  
C547     C      0.827190000000     0.033070000000     0.050620000000    -0.00671584 
C548     C      0.869440000000     0.012100000000     0.074610000000    -0.0912345  
C549     C      0.756370000000     0.024590000000     0.038200000000    -0.00091121 
C550     C      0.709910000000     0.030410000000     0.003220000000    -0.086823   
C551     C      0.761570000000     0.996460000000     0.046030000000    -0.0373138  
C552     C      0.673970000000     0.022480000000     0.995700000000     0.068598   
C553     C      0.655870000000     0.992840000000     0.042760000000     0.025005   
C554     C      0.796410000000     0.000560000000     0.051760000000    -0.0331394  
C555     C      0.864340000000     0.036600000000     0.056110000000     0.047993   
C556     C      0.719160000000     0.019400000000     0.030940000000     0.0383183  
C557     C      0.628060000000     0.968610000000     0.063440000000     0.29063    
C558     C      0.290860000000     0.957610000000     0.906120000000    -0.0572313  
C559     C      0.081800000000     0.899100000000     0.969110000000     0.0715938  
C560     C      0.062300000000     0.904660000000     0.919210000000     0.069087   
C561     C      0.110070000000     0.895490000000     0.960740000000    -0.0944683  
C562     C      0.174770000000     0.933660000000     0.905640000000    -0.0338253  
C563     C      0.212010000000     0.944790000000     0.905800000000    -0.037362   
C564     C      0.152200000000     0.904380000000     0.923100000000    -0.00742737 
C565     C      0.091490000000     0.902360000000     0.909890000000    -0.0915874  
C566     C      0.227260000000     0.926840000000     0.923460000000    -0.000778163
C567     C      0.281980000000     0.943230000000     0.957850000000    -0.0840263  
C568     C      0.204090000000     0.895860000000     0.938580000000    -0.0378118  
C569     C      0.319400000000     0.958600000000     0.963380000000     0.0672972  
C570     C      0.328720000000     0.973260000000     0.912180000000     0.0215194  
C571     C      0.166950000000     0.884680000000     0.938300000000    -0.0347772  
C572     C      0.116530000000     0.899000000000     0.930910000000     0.0484445  
C573     C      0.267210000000     0.942110000000     0.928990000000     0.0368159  
C574     C      0.351700000000     0.993350000000     0.887210000000     0.293536   
C575     C      0.904960000000     0.607760000000     0.003200000000    -0.06092    
C576     C      0.940210000000     0.810060000000     0.995450000000     0.0737229  
C577     C      0.948740000000     0.812870000000     0.047200000000     0.0703911  
C578     C      0.929580000000     0.775790000000     0.998620000000    -0.0930592  
C579     C      0.939090000000     0.712110000000     0.051290000000    -0.0329481  
C580     C      0.939080000000     0.681720000000     0.049440000000    -0.0375243  
C581     C      0.920520000000     0.723270000000     0.029440000000    -0.00691151 
C582     C      0.937460000000     0.778100000000     0.051240000000    -0.0923311  
C583     C      0.921620000000     0.662370000000     0.025140000000    -3.85242e-05
C584     C      0.964170000000     0.639010000000     0.026740000000    -0.083481   
C585     C      0.899790000000     0.671630000000     0.005170000000    -0.038077   
C586     C      0.973020000000     0.615450000000     0.019380000000     0.0671346  
C587     C      0.914610000000     0.584200000000     0.995700000000     0.0244635  
C588     C      0.898710000000     0.701380000000     0.007650000000    -0.0336229  
C589     C      0.928100000000     0.759130000000     0.026690000000     0.0489829  
C590     C      0.929870000000     0.635570000000     0.018770000000     0.0374935  
C591     C      0.885300000000     0.553270000000     0.982580000000     0.284177   
C592     C      0.037340000000     0.336370000000     0.933490000000    -0.0574162  
C593     C      0.063750000000     0.155080000000     0.989230000000     0.0743748  
C594     C      0.034060000000     0.145730000000     0.941650000000     0.0695227  
C595     C      0.069760000000     0.188210000000     0.986340000000    -0.090795   
C596     C      0.049630000000     0.242860000000     0.984990000000    -0.0324195  
C597     C      0.049290000000     0.273380000000     0.984130000000    -0.0357549  
C598     C      0.057510000000     0.233270000000     0.959930000000    -0.00685935 
C599     C      0.039360000000     0.178810000000     0.938130000000    -0.0920527  
C600     C      0.056740000000     0.295090000000     0.958170000000    -0.00042155 
C601     C      0.068570000000     0.346760000000     0.981120000000    -0.0845187  
C602     C      0.064810000000     0.285680000000     0.933070000000    -0.0369634  
C603     C      0.063170000000     0.374470000000     0.981520000000     0.0668472  
C604     C      0.032870000000     0.364900000000     0.933970000000     0.0224767  
C605     C      0.065170000000     0.255000000000     0.933940000000    -0.03302    
C606     C      0.056320000000     0.200040000000     0.961080000000     0.0500238  
C607     C      0.054670000000     0.326760000000     0.957360000000     0.038426   
C608     C      0.015860000000     0.373670000000     0.906710000000     0.295341   
H1       H      0.022380000000     0.978650000000     0.926980000000     0.205418   
H2       H      0.968360000000     0.038690000000     0.987720000000     0.196116   
H3       H      0.930410000000     0.905940000000     0.019240000000     0.19743    
H4       H      0.069640000000     0.001210000000     0.043080000000     0.196043   
H5       H      0.944050000000     0.044920000000     0.933060000000     0.131958   
H6       H      0.889180000000     0.995350000000     0.962790000000     0.196051   
H7       H      0.878250000000     0.932400000000     0.051230000000     0.133939   
H8       H      0.936240000000     0.906770000000     0.084470000000     0.188587   
H9       H      0.062860000000     0.933520000000     0.050850000000     0.136341   
H10      H      0.129330000000     0.988410000000     0.012730000000     0.193428   
H11      H      0.107460000000     0.035000000000     0.933910000000     0.137441   
H12      H      0.030230000000     0.046280000000     0.884530000000     0.202628   
H13      H      0.967560000000     0.897070000000     0.100980000000     0.202828   
H14      H      0.134490000000     0.991070000000     0.976640000000     0.201638   
H15      H      0.063470000000     0.063860000000     0.910470000000     0.197987   
H16      H      0.894280000000     0.013070000000     0.994060000000     0.197676   
H17      H      0.897900000000     0.934530000000     0.477300000000     0.196633   
H18      H      0.023280000000     0.040100000000     0.437770000000     0.204038   
H19      H      0.998150000000     0.028660000000     0.553460000000     0.206051   
H20      H      0.025560000000     0.935250000000     0.514800000000     0.205101   
H21      H      0.977130000000     0.051950000000     0.405940000000     0.131379   
H22      H      0.997540000000     0.093980000000     0.448300000000     0.199171   
H23      H      0.067940000000     0.082800000000     0.545930000000     0.132096   
H24      H      0.060140000000     0.037760000000     0.590180000000     0.192203   
H25      H      0.996370000000     0.917320000000     0.584100000000     0.139761   
H26      H      0.979650000000     0.868070000000     0.523230000000     0.199944   
H27      H      0.892640000000     0.875580000000     0.456830000000     0.127521   
H28      H      0.902290000000     0.924570000000     0.412260000000     0.190432   
H29      H      0.076330000000     0.010910000000     0.600810000000     0.214383   
H30      H      0.952900000000     0.867650000000     0.547720000000     0.201535   
H31      H      0.895180000000     0.954510000000     0.392430000000     0.209348   
H32      H      0.034030000000     0.123160000000     0.466140000000     0.220529   
H33      H      0.983690000000     0.457270000000     0.047610000000     0.197185   
H34      H      0.924890000000     0.449470000000     0.935140000000     0.201018   
H35      H      0.025680000000     0.573930000000     0.969530000000     0.199933   
H36      H      0.070380000000     0.482190000000     0.958570000000     0.19968    
H37      H      0.872550000000     0.443610000000     0.982960000000     0.147283   
H38      H      0.883910000000     0.480630000000     0.930320000000     0.196918   
H39      H      0.009710000000     0.580560000000     0.907220000000     0.133504   
H40      H      0.092690000000     0.604520000000     0.913910000000     0.194674   
H41      H      0.136750000000     0.558600000000     0.987620000000     0.14552    
H42      H      0.116140000000     0.477630000000     0.007440000000     0.200441   
H43      H      0.001200000000     0.395130000000     0.041380000000     0.134353   
H44      H      0.936530000000     0.389500000000     0.048490000000     0.187021   
H45      H      0.130030000000     0.609280000000     0.934070000000     0.199798   
H46      H      0.117450000000     0.496650000000     0.036880000000     0.206343   
H47      H      0.894150000000     0.372010000000     0.033430000000     0.204601   
H48      H      0.894960000000     0.521410000000     0.922660000000     0.213769   
H49      H      0.905600000000     0.459970000000     0.512160000000     0.193576   
H50      H      0.956680000000     0.465130000000     0.406080000000     0.199396   
H51      H      0.033920000000     0.571460000000     0.473370000000     0.195466   
H52      H      0.028720000000     0.451020000000     0.512440000000     0.197595   
H53      H      0.889290000000     0.449810000000     0.390520000000     0.150377   
H54      H      0.947960000000     0.543020000000     0.382140000000     0.21324    
H55      H      0.072360000000     0.588270000000     0.424590000000     0.131594   
H56      H      0.100760000000     0.595270000000     0.481200000000     0.188639   
H57      H      0.077470000000     0.495220000000     0.551180000000     0.130733   
H58      H      0.988900000000     0.411980000000     0.578740000000     0.204697   
H59      H      0.888810000000     0.387540000000     0.526610000000     0.131624   
H60      H      0.846220000000     0.397080000000     0.481520000000     0.190259   
H61      H      0.124290000000     0.575170000000     0.478700000000     0.203111   
H62      H      0.015570000000     0.453990000000     0.578240000000     0.197349   
H63      H      0.831950000000     0.402130000000     0.446660000000     0.207975   
H64      H      0.966530000000     0.526490000000     0.363580000000     0.203044   
H65      H      0.484490000000     0.946950000000     0.922870000000     0.195524   
H66      H      0.461110000000     0.944490000000     0.038050000000     0.19386    
H67      H      0.586000000000     0.046840000000     0.993820000000     0.196992   
H68      H      0.458370000000     0.044180000000     0.954810000000     0.193756   
H69      H      0.457940000000     0.886430000000     0.037090000000     0.131119   
H70      H      0.522170000000     0.928020000000     0.061850000000     0.206806   
H71      H      0.580150000000     0.060600000000     0.053190000000     0.14263    
H72      H      0.604690000000     0.112660000000     0.002520000000     0.199564   
H73      H      0.515670000000     0.099610000000     0.922360000000     0.13093    
H74      H      0.456950000000     0.058770000000     0.899270000000     0.190841   
H75      H      0.406280000000     0.933650000000     0.901040000000     0.13815    
H76      H      0.417390000000     0.886010000000     0.930630000000     0.189726   
H77      H      0.573300000000     0.116050000000     0.018740000000     0.208632   
H78      H      0.458840000000     0.041390000000     0.869890000000     0.206955   
H79      H      0.400990000000     0.859950000000     0.960900000000     0.205233   
H80      H      0.543720000000     0.956020000000     0.087210000000     0.215221   
H81      H      0.403700000000     0.955930000000     0.441140000000     0.187988   
H82      H      0.473180000000     0.984840000000     0.550200000000     0.208301   
H83      H      0.521200000000     0.932700000000     0.476790000000     0.198877   
H84      H      0.541710000000     0.061340000000     0.448350000000     0.196011   
H85      H      0.392830000000     0.924220000000     0.555490000000     0.132656   
H86      H      0.463960000000     0.914610000000     0.582340000000     0.190938   
H87      H      0.576960000000     0.964970000000     0.537390000000     0.143377   
H88      H      0.615920000000     0.996050000000     0.479450000000     0.202001   
H89      H      0.582900000000     0.045420000000     0.404130000000     0.133022   
H90      H      0.518610000000     0.062790000000     0.383770000000     0.191221   
H91      H      0.395980000000     0.004610000000     0.410080000000     0.133557   
H92      H      0.355840000000     0.967320000000     0.468240000000     0.196154   
H93      H      0.585860000000     0.958360000000     0.467640000000     0.197462   
H94      H      0.478760000000     0.061010000000     0.372920000000     0.208054   
H95      H      0.376940000000     0.002560000000     0.486160000000     0.209407   
H96      H      0.500630000000     0.909430000000     0.584820000000     0.20236    
H97      H      0.417310000000     0.468220000000     0.038290000000     0.208769   
H98      H      0.470210000000     0.466840000000     0.934910000000     0.195396   
H99      H      0.549790000000     0.574690000000     0.000470000000     0.194489   
H100     H      0.535000000000     0.451880000000     0.044700000000     0.221916   
H101     H      0.398230000000     0.450580000000     0.918570000000     0.135279   
H102     H      0.467070000000     0.547730000000     0.907760000000     0.211535   
H103     H      0.584760000000     0.594670000000     0.950870000000     0.132256   
H104     H      0.615250000000     0.592300000000     0.001790000000     0.187039   
H105     H      0.592590000000     0.516530000000     0.087990000000     0.143289   
H106     H      0.487740000000     0.418220000000     0.113830000000     0.209054   
H107     H      0.394760000000     0.397680000000     0.052890000000     0.134353   
H108     H      0.352130000000     0.402680000000     0.998420000000     0.202703   
H109     H      0.634430000000     0.567860000000     0.001490000000     0.208186   
H110     H      0.525560000000     0.453960000000     0.104740000000     0.200137   
H111     H      0.343680000000     0.417380000000     0.964820000000     0.207141   
H112     H      0.483590000000     0.528070000000     0.890860000000     0.206804   
H113     H      0.460590000000     0.449660000000     0.573910000000     0.201802   
H114     H      0.408780000000     0.452360000000     0.458970000000     0.194702   
H115     H      0.515330000000     0.571140000000     0.501300000000     0.195872   
H116     H      0.550010000000     0.473280000000     0.487790000000     0.204697   
H117     H      0.344660000000     0.415850000000     0.492890000000     0.135559   
H118     H      0.376230000000     0.508600000000     0.470180000000     0.208705   
H119     H      0.501640000000     0.585180000000     0.439790000000     0.130897   
H120     H      0.580510000000     0.604230000000     0.454670000000     0.192456   
H121     H      0.616570000000     0.536590000000     0.517020000000     0.139573   
H122     H      0.590450000000     0.463200000000     0.537680000000     0.198586   
H123     H      0.466000000000     0.388660000000     0.571530000000     0.128153   
H124     H      0.385370000000     0.372810000000     0.561770000000     0.192354   
H125     H      0.617270000000     0.602330000000     0.469850000000     0.200402   
H126     H      0.589150000000     0.473740000000     0.571050000000     0.203394   
H127     H      0.349370000000     0.376500000000     0.547280000000     0.198082   
H128     H      0.380800000000     0.500650000000     0.436670000000     0.200618   
H129     H      0.526760000000     0.527770000000     0.646040000000     0.0285002  
H130     H      0.521160000000     0.427970000000     0.891150000000     0.0271506  
H131     H      0.598880000000     0.519710000000     0.734570000000     0.0399645  
H132     H      0.499380000000     0.429340000000     0.793260000000     0.0387726  
H133     H      0.525980000000     0.422800000000     0.840090000000     0.0513589  
H134     H      0.494870000000     0.429490000000     0.739570000000     0.0395354  
H135     H      0.582460000000     0.531420000000     0.824670000000     0.058177   
H136     H      0.537790000000     0.523650000000     0.699090000000     0.0555015  
H137     H      0.543350000000     0.432510000000     0.693940000000     0.054379   
H138     H      0.604920000000     0.518690000000     0.788190000000     0.0410087  
H139     H      0.533370000000     0.437650000000     0.640510000000     0.0263066  
H140     H      0.609400000000     0.595630000000     0.869800000000     0.186158   
H141     H      0.440610000000     0.539940000000     0.370070000000     0.0271469  
H142     H      0.442480000000     0.453500000000     0.141020000000     0.0294999  
H143     H      0.471760000000     0.556260000000     0.272070000000     0.0411524  
H144     H      0.388620000000     0.453410000000     0.220670000000     0.041291   
H145     H      0.434150000000     0.456300000000     0.190780000000     0.0530522  
H146     H      0.388580000000     0.451420000000     0.274030000000     0.038979   
H147     H      0.436930000000     0.552020000000     0.168440000000     0.0585494  
H148     H      0.433010000000     0.545950000000     0.316500000000     0.0543857  
H149     H      0.437110000000     0.453800000000     0.312320000000     0.0567254  
H150     H      0.472220000000     0.558190000000     0.218340000000     0.0450464  
H151     H      0.444920000000     0.448550000000     0.365280000000     0.0328106  
H152     H      0.461020000000     0.605740000000     0.102290000000     0.195339   
H153     H      0.455770000000     0.841660000000     0.557380000000     0.0225911  
H154     H      0.415930000000     0.592520000000     0.486380000000     0.0280279  
H155     H      0.465210000000     0.750010000000     0.560920000000     0.0380592  
H156     H      0.362390000000     0.651310000000     0.515620000000     0.0378297  
H157     H      0.398980000000     0.634130000000     0.492700000000     0.0509525  
H158     H      0.362170000000     0.705370000000     0.511150000000     0.0367849  
H159     H      0.439990000000     0.638600000000     0.582960000000     0.0528317  
H160     H      0.438260000000     0.783000000000     0.571900000000     0.0527111  
H161     H      0.399040000000     0.758800000000     0.482440000000     0.0532395  
H162     H      0.465560000000     0.696720000000     0.565190000000     0.0412277  
H163     H      0.415840000000     0.817490000000     0.468690000000     0.0271415  
H164     H      0.461400000000     0.575770000000     0.625130000000     0.181503   
H165     H      0.499610000000     0.376890000000     0.435620000000     0.0321981  
H166     H      0.551340000000     0.147630000000     0.494430000000     0.0310155  
H167     H      0.477080000000     0.269510000000     0.441950000000     0.0394696  
H168     H      0.588300000000     0.259980000000     0.469190000000     0.0387555  
H169     H      0.561580000000     0.204130000000     0.491650000000     0.051878   
H170     H      0.587640000000     0.311670000000     0.477790000000     0.038552   
H171     H      0.498470000000     0.189330000000     0.409360000000     0.0541172  
H172     H      0.509080000000     0.331940000000     0.423690000000     0.0548881  
H173     H      0.551310000000     0.324310000000     0.512600000000     0.0542357  
H174     H      0.477020000000     0.217660000000     0.434380000000     0.0413516  
H175     H      0.541610000000     0.369980000000     0.524220000000     0.0261741  
H176     H      0.469460000000     0.119100000000     0.363760000000     0.174752   
H177     H      0.497490000000     0.022340000000     0.831020000000     0.0236669  
H178     H      0.571380000000     0.985690000000     0.611140000000     0.0217197  
H179     H      0.582520000000     0.075380000000     0.753910000000     0.0412638  
H180     H      0.555440000000     0.973160000000     0.705770000000     0.0384     
H181     H      0.586770000000     0.990960000000     0.663080000000     0.0501215  
H182     H      0.551020000000     0.969330000000     0.758760000000     0.0391644  
H183     H      0.550760000000     0.064800000000     0.659870000000     0.0545066  
H184     H      0.514780000000     0.031510000000     0.780630000000     0.0565093  
H185     H      0.596640000000     0.002700000000     0.809110000000     0.0552364  
H186     H      0.589540000000     0.080260000000     0.701040000000     0.0418666  
H187     H      0.579650000000     0.994630000000     0.859760000000     0.0273014  
H188     H      0.531910000000     0.109670000000     0.596770000000     0.182735   
H189     H      0.427760000000     0.907170000000     0.352160000000     0.0270635  
H190     H      0.406120000000     0.961960000000     0.097460000000     0.0267032  
H191     H      0.460990000000     0.012070000000     0.259240000000     0.03917    
H192     H      0.401620000000     0.916060000000     0.195940000000     0.0396586  
H193     H      0.390850000000     0.949930000000     0.148720000000     0.0515143  
H194     H      0.390200000000     0.905650000000     0.248740000000     0.0380211  
H195     H      0.503690000000     0.006860000000     0.175340000000     0.0589915  
H196     H      0.424850000000     0.907690000000     0.298570000000     0.0542215  
H197     H      0.410830000000     0.996060000000     0.290650000000     0.0530818  
H198     H      0.471740000000     0.022350000000     0.207060000000     0.0419767  
H199     H      0.414450000000     0.995280000000     0.343520000000     0.0186608  
H200     H      0.581450000000     0.046890000000     0.136100000000     0.187222   
H201     H      0.475270000000     0.850460000000     0.937930000000     0.0232724  
H202     H      0.542540000000     0.640670000000     0.928510000000     0.028557   
H203     H      0.520620000000     0.788160000000     0.892510000000     0.0386766  
H204     H      0.570300000000     0.754890000000     0.986010000000     0.0450572  
H205     H      0.559670000000     0.699560000000     0.915850000000     0.0525558  
H206     H      0.576540000000     0.811810000000     0.977900000000     0.0423398  
H207     H      0.500230000000     0.697230000000     0.986610000000     0.0565364  
H208     H      0.485650000000     0.804110000000     0.931560000000     0.0554876  
H209     H      0.600810000000     0.871780000000     0.936090000000     0.0552543  
H210     H      0.515310000000     0.731530000000     0.900270000000     0.0409892  
H211     H      0.589500000000     0.918760000000     0.941380000000     0.0287489  
H212     H      0.422050000000     0.623460000000     0.014030000000     0.180017   
H213     H      0.518000000000     0.142750000000     0.008120000000     0.0272315  
H214     H      0.424300000000     0.329520000000     0.059480000000     0.0266222  
H215     H      0.498830000000     0.200960000000     0.072650000000     0.0407729  
H216     H      0.403560000000     0.225600000000     0.022610000000     0.0381714  
H217     H      0.409830000000     0.270080000000     0.064500000000     0.0511705  
H218     H      0.400930000000     0.171290000000     0.016920000000     0.0392788  
H219     H      0.513200000000     0.299030000000     0.032240000000     0.0600236  
H220     H      0.509310000000     0.186900000000     0.022950000000     0.0566219  
H221     H      0.400040000000     0.113670000000     0.044340000000     0.0541811  
H222     H      0.501460000000     0.254760000000     0.078180000000     0.0426797  
H223     H      0.409670000000     0.068890000000     0.029430000000     0.0272586  
H224     H      0.581530000000     0.375640000000     0.004290000000     0.183509   
H225     H      0.659290000000     0.086430000000     0.460250000000     0.0279459  
H226     H      0.924740000000     0.334730000000     0.448330000000     0.0330577  
H227     H      0.773590000000     0.174560000000     0.473040000000     0.0382521  
H228     H      0.769410000000     0.281850000000     0.448520000000     0.0409184  
H229     H      0.875290000000     0.279110000000     0.461600000000     0.0529445  
H230     H      0.715880000000     0.231530000000     0.466250000000     0.0382192  
H231     H      0.801920000000     0.303180000000     0.404880000000     0.0600511  
H232     H      0.716440000000     0.136170000000     0.452960000000     0.0544978  
H233     H      0.685650000000     0.189370000000     0.505510000000     0.0530025  
H234     H      0.826560000000     0.224500000000     0.453400000000     0.0401946  
H235     H      0.627030000000     0.138510000000     0.511700000000     0.027843   
H236     H      0.812640000000     0.374760000000     0.362270000000     0.180328   
H237     H      0.319090000000     0.873750000000     0.512350000000     0.0314015  
H238     H      0.112430000000     0.596080000000     0.551590000000     0.0313091  
H239     H      0.204390000000     0.792030000000     0.501580000000     0.0378547  
H240     H      0.195940000000     0.680020000000     0.497950000000     0.0362275  
H241     H      0.165560000000     0.648930000000     0.540050000000     0.051414   
H242     H      0.251150000000     0.730990000000     0.483570000000     0.0368485  
H243     H      0.098530000000     0.694170000000     0.508740000000     0.058591   
H244     H      0.263100000000     0.823340000000     0.520260000000     0.0539802  
H245     H      0.282770000000     0.779900000000     0.450450000000     0.0517883  
H246     H      0.150950000000     0.741600000000     0.518640000000     0.0408326  
H247     H      0.340920000000     0.831330000000     0.443830000000     0.0253853  
H248     H      0.007810000000     0.666360000000     0.509900000000     0.192244   
H249     H      0.811380000000     0.455920000000     0.456180000000     0.0237648  
H250     H      0.612770000000     0.566430000000     0.427010000000     0.021372   
H251     H      0.752350000000     0.504910000000     0.407430000000     0.0406842  
H252     H      0.697680000000     0.544260000000     0.472950000000     0.0415794  
H253     H      0.673760000000     0.574910000000     0.431150000000     0.0511056  
H254     H      0.751600000000     0.539500000000     0.490890000000     0.0370045  
H255     H      0.633900000000     0.473780000000     0.407190000000     0.0598274  
H256     H      0.760860000000     0.465620000000     0.443300000000     0.0543447  
H257     H      0.816380000000     0.558180000000     0.486950000000     0.0548434  
H258     H      0.698000000000     0.508720000000     0.390010000000     0.0417614  
H259     H      0.866630000000     0.546490000000     0.501150000000     0.0310988  
H260     H      0.547960000000     0.408940000000     0.391550000000     0.179334   
H261     H      0.394990000000     0.527120000000     0.578440000000     0.0418236  
H262     H      0.151990000000     0.525120000000     0.474230000000     0.021146   
H263     H      0.234540000000     0.429990000000     0.577030000000     0.0390613  
H264     H      0.252060000000     0.509500000000     0.487870000000     0.0387027  
H265     H      0.205960000000     0.523610000000     0.493820000000     0.0515799  
H266     H      0.304700000000     0.512000000000     0.516930000000     0.037941   
H267     H      0.147660000000     0.414760000000     0.499620000000     0.0567357  
H268     H      0.337720000000     0.526550000000     0.565960000000     0.0567991  
H269     H      0.283430000000     0.417390000000     0.570170000000     0.0532638  
H270     H      0.181550000000     0.427760000000     0.548040000000     0.0434765  
H271     H      0.340950000000     0.418860000000     0.582990000000     0.0198582  
H272     H      0.053770000000     0.360460000000     0.499640000000     0.181385   
H273     H      0.924630000000     0.440640000000     0.612610000000     0.0279682  
H274     H      0.953090000000     0.535310000000     0.844020000000     0.0285941  
H275     H      0.878430000000     0.446620000000     0.695960000000     0.0388038  
H276     H      0.975870000000     0.544060000000     0.746670000000     0.0411758  
H277     H      0.942680000000     0.540270000000     0.791120000000     0.0524851  
H278     H      0.972670000000     0.546090000000     0.692870000000     0.0407114  
H279     H      0.925660000000     0.439620000000     0.787170000000     0.0587737  
H280     H      0.917340000000     0.442960000000     0.663270000000     0.0545022  
H281     H      0.938590000000     0.546190000000     0.644460000000     0.0558498  
H282     H      0.881910000000     0.444500000000     0.749580000000     0.0411906  
H283     H      0.946240000000     0.543250000000     0.593050000000     0.0346858  
H284     H      0.932990000000     0.381700000000     0.840750000000     0.177179   
H285     H      0.064000000000     0.455300000000     0.113430000000     0.0285361  
H286     H      0.024860000000     0.526770000000     0.338170000000     0.0238893  
H287     H      0.098920000000     0.479390000000     0.215790000000     0.0403479  
H288     H      0.992800000000     0.477930000000     0.253380000000     0.0399225  
H289     H      0.031410000000     0.522700000000     0.288030000000     0.0525952  
H290     H      0.997770000000     0.481430000000     0.200550000000     0.0382174  
H291     H      0.056050000000     0.441920000000     0.314100000000     0.0594979  
H292     H      0.065670000000     0.447960000000     0.167220000000     0.0551456  
H293     H      0.043330000000     0.530570000000     0.167990000000     0.0547594  
H294     H      0.094030000000     0.476070000000     0.269300000000     0.0426287  
H295     H      0.041820000000     0.537330000000     0.115000000000     0.0324364  
H296     H      0.089710000000     0.449390000000     0.410150000000     0.199488   
H297     H      0.872640000000     0.330660000000     0.980960000000     0.0231664  
H298     H      0.664790000000     0.074850000000     0.930200000000     0.0262108  
H299     H      0.824400000000     0.220680000000     0.954150000000     0.0388221  
H300     H      0.736280000000     0.215710000000     0.871670000000     0.0419945  
H301     H      0.725170000000     0.120400000000     0.920790000000     0.0503397  
H302     H      0.793900000000     0.268020000000     0.877040000000     0.0415754  
H303     H      0.683310000000     0.190010000000     0.900510000000     0.0587883  
H304     H      0.827860000000     0.274930000000     0.968460000000     0.0551008  
H305     H      0.866670000000     0.298140000000     0.880990000000     0.056019   
H306     H      0.766840000000     0.168780000000     0.949240000000     0.0384579  
H307     H      0.912650000000     0.354640000000     0.894480000000     0.0352217  
H308     H      0.562730000000     0.124750000000     0.882630000000     0.178984   
H309     H      0.327790000000     0.914470000000     0.027970000000     0.0240008  
H310     H      0.123090000000     0.652670000000     0.974170000000     0.0207808  
H311     H      0.262970000000     0.773140000000     0.079130000000     0.0385521  
H312     H      0.166910000000     0.762010000000     0.002090000000     0.0385766  
H313     H      0.163900000000     0.710030000000     0.985040000000     0.051268   
H314     H      0.222170000000     0.816640000000     0.005780000000     0.0367934  
H315     H      0.140110000000     0.683330000000     0.076330000000     0.0566251  
H316     H      0.267650000000     0.867240000000     0.038690000000     0.0515607  
H317     H      0.309280000000     0.797810000000     0.038800000000     0.053499   
H318     H      0.207960000000     0.718580000000     0.075390000000     0.0411428  
H319     H      0.367890000000     0.844610000000     0.027500000000     0.020544   
H320     H      0.074200000000     0.608120000000     0.111860000000     0.17899    
H321     H      0.916790000000     0.531890000000     0.057570000000     0.0348717  
H322     H      0.622390000000     0.449300000000     0.979180000000     0.0284339  
H323     H      0.766960000000     0.434480000000     0.094920000000     0.0394125  
H324     H      0.746040000000     0.496660000000     0.004510000000     0.0418096  
H325     H      0.679390000000     0.447610000000     0.989110000000     0.0545991  
H326     H      0.807300000000     0.505480000000     0.018480000000     0.0474132  
H327     H      0.681420000000     0.465370000000     0.079330000000     0.061994   
H328     H      0.858220000000     0.529130000000     0.058830000000     0.0574815  
H329     H      0.808260000000     0.420290000000     0.073680000000     0.0550959  
H330     H      0.705830000000     0.425310000000     0.080670000000     0.042545   
H331     H      0.866770000000     0.423970000000     0.071960000000     0.0221856  
H332     H      0.627720000000     0.481760000000     0.117530000000     0.178733   
H333     H      0.091990000000     0.459970000000     0.903180000000     0.0424712  
H334     H      0.391130000000     0.566060000000     0.000410000000     0.0371177  
H335     H      0.177990000000     0.487230000000     0.974450000000     0.0355932  
H336     H      0.300000000000     0.564510000000     0.937260000000     0.0414229  
H337     H      0.339660000000     0.575040000000     0.984300000000     0.0551086  
H338     H      0.246500000000     0.564320000000     0.910430000000     0.0390991  
H339     H      0.269430000000     0.467180000000     0.990120000000     0.0596129  
H340     H      0.151130000000     0.467730000000     0.920910000000     0.0564266  
H341     H      0.191020000000     0.575160000000     0.919550000000     0.0530107  
H342     H      0.230990000000     0.488010000000     0.001610000000     0.0404742  
H343     H      0.130920000000     0.566450000000     0.901680000000     0.0169085  
H344     H      0.284040000000     0.399380000000     0.009330000000     0.175782   
H345     H      0.568760000000     0.624450000000     0.587680000000     0.042321   
H346     H      0.851210000000     0.832500000000     0.526170000000     0.0315256  
H347     H      0.656860000000     0.742060000000     0.566280000000     0.0399622  
H348     H      0.777890000000     0.752720000000     0.595570000000     0.0401554  
H349     H      0.799180000000     0.783550000000     0.544610000000     0.0513425  
H350     H      0.723970000000     0.697070000000     0.599420000000     0.0385605  
H351     H      0.771450000000     0.845340000000     0.587820000000     0.0553074  
H352     H      0.616840000000     0.679510000000     0.602910000000     0.0562462  
H353     H      0.688940000000     0.675080000000     0.546540000000     0.0526835  
H354     H      0.711090000000     0.798070000000     0.562250000000     0.0408416  
H355     H      0.641260000000     0.621810000000     0.531270000000     0.0182614  
H356     H      0.830440000000     0.928590000000     0.608340000000     0.198284   
H357     H      0.353730000000     0.328970000000     0.505380000000     0.0224159  
H358     H      0.155740000000     0.069750000000     0.451700000000     0.0264138  
H359     H      0.311810000000     0.219290000000     0.479240000000     0.0385926  
H360     H      0.224070000000     0.210700000000     0.395330000000     0.0419328  
H361     H      0.215840000000     0.116700000000     0.443040000000     0.0509022  
H362     H      0.279980000000     0.264360000000     0.401220000000     0.0395544  
H363     H      0.171450000000     0.184550000000     0.426000000000     0.0595501  
H364     H      0.311400000000     0.272420000000     0.492900000000     0.0542818  
H365     H      0.352460000000     0.296930000000     0.406170000000     0.053772   
H366     H      0.255930000000     0.165850000000     0.473600000000     0.040064   
H367     H      0.395800000000     0.354180000000     0.419570000000     0.0264209  
H368     H      0.050880000000     0.117720000000     0.408960000000     0.172905   
H369     H      0.578930000000     0.980550000000     0.384450000000     0.0277529  
H370     H      0.814210000000     0.940780000000     0.498390000000     0.0446148  
H371     H      0.665530000000     0.941580000000     0.376570000000     0.040255   
H372     H      0.708430000000     0.940650000000     0.481620000000     0.040631   
H373     H      0.751930000000     0.924660000000     0.485200000000     0.0537731  
H374     H      0.646220000000     0.928170000000     0.468930000000     0.0362882  
H375     H      0.783670000000     0.992200000000     0.406340000000     0.0566623  
H376     H      0.635390000000     0.978670000000     0.387770000000     0.057053   
H377     H      0.584900000000     0.883040000000     0.439880000000     0.0531556  
H378     H      0.727470000000     0.952000000000     0.388950000000     0.042357   
H379     H      0.528250000000     0.885260000000     0.435540000000     0.0225798  
H380     H      0.902930000000     0.060930000000     0.417380000000     0.186007   
H381     H      0.408780000000     0.011820000000     0.588740000000     0.0291547  
H382     H      0.156010000000     0.024910000000     0.486570000000     0.0287739  
H383     H      0.302100000000     0.995760000000     0.574420000000     0.0397099  
H384     H      0.275690000000     0.086770000000     0.529610000000     0.0396148  
H385     H      0.219680000000     0.043600000000     0.497080000000     0.0511343  
H386     H      0.338840000000     0.098750000000     0.536540000000     0.0378912  
H387     H      0.199430000000     0.004970000000     0.587350000000     0.0580209  
H388     H      0.357810000000     0.019120000000     0.596860000000     0.0553862  
H389     H      0.382860000000     0.090480000000     0.519750000000     0.0539394  
H390     H      0.240280000000     0.985100000000     0.569090000000     0.0421267  
H391     H      0.436300000000     0.085220000000     0.514820000000     0.0292644  
H392     H      0.121140000000     0.972410000000     0.626560000000     0.179304   
H393     H      0.067980000000     0.902040000000     0.456000000000     0.0244028  
H394     H      0.027900000000     0.642240000000     0.409340000000     0.0281987  
H395     H      0.068730000000     0.811200000000     0.418930000000     0.0372781  
H396     H      0.946130000000     0.711350000000     0.425690000000     0.0413017  
H397     H      0.037640000000     0.699770000000     0.399950000000     0.0510863  
H398     H      0.952770000000     0.766760000000     0.425140000000     0.0383981  
H399     H      0.957990000000     0.677190000000     0.461780000000     0.0556863  
H400     H      0.069360000000     0.851990000000     0.444340000000     0.0527278  
H401     H      0.961860000000     0.815950000000     0.402360000000     0.0532492  
H402     H      0.061990000000     0.754270000000     0.422700000000     0.0404407  
H403     H      0.960120000000     0.863760000000     0.417720000000     0.0246623  
H404     H      0.906180000000     0.605380000000     0.506180000000     0.179233   
H405     H      0.990550000000     0.345510000000     0.469270000000     0.0394759  
H406     H      0.897610000000     0.065670000000     0.524090000000     0.0337685  
H407     H      0.007260000000     0.260910000000     0.514330000000     0.0423414  
H408     H      0.893860000000     0.162840000000     0.550790000000     0.040627   
H409     H      0.892550000000     0.116710000000     0.524790000000     0.0537946  
H410     H      0.897650000000     0.218830000000     0.540680000000     0.0379341  
H411     H      0.999960000000     0.166500000000     0.565750000000     0.0598063  
H412     H      0.981420000000     0.288660000000     0.478760000000     0.0567136  
H413     H      0.930920000000     0.277330000000     0.559110000000     0.0535521  
H414     H      0.003160000000     0.205580000000     0.523390000000     0.0473364  
H415     H      0.939930000000     0.334630000000     0.548780000000     0.0241944  
H416     H      0.030300000000     0.082510000000     0.592780000000     0.170091   
H417     H      0.951150000000     0.000840000000     0.852780000000     0.0249094  
H418     H      0.984140000000     0.949930000000     0.640530000000     0.0252333  
H419     H      0.888700000000     0.971720000000     0.765190000000     0.0387833  
H420     H      0.923830000000     0.897620000000     0.722980000000     0.0394978  
H421     H      0.965110000000     0.934310000000     0.689900000000     0.0513326  
H422     H      0.921790000000     0.894840000000     0.775980000000     0.0377196  
H423     H      0.883180000000     0.964220000000     0.666610000000     0.0572914  
H424     H      0.933700000000     0.992300000000     0.801980000000     0.053546   
H425     H      0.895520000000     0.885070000000     0.821400000000     0.0533502  
H426     H      0.895220000000     0.977690000000     0.712950000000     0.0416879  
H427     H      0.915250000000     0.894910000000     0.872790000000     0.0266133  
H428     H      0.926600000000     0.041990000000     0.591180000000     0.192546   
H429     H      0.972850000000     0.995260000000     0.348360000000     0.0261582  
H430     H      0.038350000000     0.963070000000     0.137130000000     0.026326   
H431     H      0.027790000000     0.050860000000     0.264710000000     0.0407037  
H432     H      0.090140000000     0.995140000000     0.229450000000     0.0394469  
H433     H      0.049870000000     0.970070000000     0.188690000000     0.0515627  
H434     H      0.081090000000     0.989810000000     0.281890000000     0.0382777  
H435     H      0.070330000000     0.072920000000     0.172130000000     0.0577656  
H436     H      0.988950000000     0.005420000000     0.297910000000     0.0528902  
H437     H      0.094350000000     0.016960000000     0.327210000000     0.0545642  
H438     H      0.034410000000     0.054160000000     0.212450000000     0.0424509  
H439     H      0.077030000000     0.005630000000     0.377730000000     0.0290622  
H440     H      0.075990000000     0.122100000000     0.104940000000     0.17918    
H441     H      0.815940000000     0.885660000000     0.989810000000     0.0282098  
H442     H      0.627620000000     0.597990000000     0.063430000000     0.0302094  
H443     H      0.736880000000     0.793680000000     0.038710000000     0.0375544  
H444     H      0.693430000000     0.684830000000     0.995380000000     0.039057   
H445     H      0.680270000000     0.649580000000     0.047800000000     0.0528554  
H446     H      0.745550000000     0.735510000000     0.975210000000     0.0370667  
H447     H      0.618740000000     0.702210000000     0.038260000000     0.0602464  
H448     H      0.759870000000     0.835250000000     0.001030000000     0.0523875  
H449     H      0.806440000000     0.774490000000     0.982020000000     0.0523276  
H450     H      0.683780000000     0.743380000000     0.057450000000     0.0421959  
H451     H      0.861690000000     0.825930000000     0.969120000000     0.0265953  
H452     H      0.532290000000     0.679790000000     0.051930000000     0.188327   
H453     H      0.355700000000     0.358300000000     0.942070000000     0.0186009  
H454     H      0.173260000000     0.075410000000     0.987590000000     0.023107   
H455     H      0.330650000000     0.252180000000     0.027150000000     0.0383852  
H456     H      0.241810000000     0.183800000000     0.950200000000     0.0398063  
H457     H      0.230140000000     0.125170000000     0.978900000000     0.050281   
H458     H      0.295430000000     0.237050000000     0.935690000000     0.0385345  
H459     H      0.204870000000     0.178370000000     0.035150000000     0.0581726  
H460     H      0.309750000000     0.299510000000     0.949670000000     0.0537028  
H461     H      0.391160000000     0.275180000000     0.991210000000     0.0541478  
H462     H      0.276290000000     0.199100000000     0.041800000000     0.0416169  
H463     H      0.437260000000     0.334490000000     0.982070000000     0.0341921  
H464     H      0.124960000000     0.156270000000     0.068250000000     0.181759   
H465     H      0.903350000000     0.989990000000     0.087650000000     0.0229327  
H466     H      0.668330000000     0.032140000000     0.974030000000     0.0250776  
H467     H      0.798990000000     0.977900000000     0.056380000000     0.0400894  
H468     H      0.783320000000     0.079210000000     0.030500000000     0.0396046  
H469     H      0.730240000000     0.044550000000     0.987170000000     0.0518374  
H470     H      0.844540000000     0.086800000000     0.042010000000     0.0375488  
H471     H      0.698630000000     0.990860000000     0.071970000000     0.0592602  
H472     H      0.848160000000     0.992830000000     0.088040000000     0.0549952  
H473     H      0.892210000000     0.082220000000     0.026910000000     0.0503205  
H474     H      0.738620000000     0.971080000000     0.046920000000     0.0420267  
H475     H      0.948640000000     0.080060000000     0.029480000000     0.0202479  
H476     H      0.617080000000     0.955870000000     0.106680000000     0.179103   
H477     H      0.044670000000     0.909400000000     0.902630000000     0.022412   
H478     H      0.329000000000     0.957780000000     0.986230000000     0.0294437  
H479     H      0.150160000000     0.861820000000     0.951710000000     0.0376327  
H480     H      0.229190000000     0.968770000000     0.893930000000     0.0410327  
H481     H      0.264660000000     0.932420000000     0.976310000000     0.0498589  
H482     H      0.164310000000     0.949570000000     0.893950000000     0.038646   
H483     H      0.279880000000     0.958260000000     0.883680000000     0.0570312  
H484     H      0.095480000000     0.904920000000     0.886570000000     0.0536032  
H485     H      0.128580000000     0.892870000000     0.977780000000     0.0523002  
H486     H      0.214990000000     0.881150000000     0.951910000000     0.0382969  
H487     H      0.079260000000     0.898420000000     0.992530000000     0.0224715  
H488     H      0.393290000000     0.039190000000     0.874230000000     0.17554    
H489     H      0.956040000000     0.826710000000     0.066650000000     0.0223289  
H490     H      0.000420000000     0.620050000000     0.025570000000     0.032278   
H491     H      0.882560000000     0.708250000000     0.991210000000     0.0381299  
H492     H      0.954680000000     0.674550000000     0.066200000000     0.0395588  
H493     H      0.984990000000     0.660510000000     0.037810000000     0.0528778  
H494     H      0.955810000000     0.727800000000     0.068710000000     0.0375531  
H495     H      0.877690000000     0.603710000000     0.997780000000     0.057037   
H496     H      0.936440000000     0.766360000000     0.073430000000     0.05198    
H497     H      0.923970000000     0.762940000000     0.978810000000     0.0537575  
H498     H      0.885450000000     0.657360000000     0.986370000000     0.0424817  
H499     H      0.941200000000     0.821440000000     0.973060000000     0.0279738  
H500     H      0.840430000000     0.535780000000     0.954650000000     0.175621   
H501     H      0.019560000000     0.129650000000     0.923860000000     0.0260712  
H502     H      0.073920000000     0.388420000000     0.001000000000     0.0269804  
H503     H      0.071580000000     0.248360000000     0.914350000000     0.0387026  
H504     H      0.042200000000     0.279560000000     0.003640000000     0.0402018  
H505     H      0.083070000000     0.340690000000     0.999720000000     0.0529593  
H506     H      0.042760000000     0.226330000000     0.005160000000     0.0388143  
H507     H      0.026850000000     0.321420000000     0.914580000000     0.0559725  
H508     H      0.028630000000     0.187040000000     0.918180000000     0.053661   
H509     H      0.084030000000     0.204170000000     0.004230000000     0.0560028  
H510     H      0.070970000000     0.302080000000     0.912820000000     0.0409878  
H511     H      0.073880000000     0.146850000000     0.009580000000     0.036537   
H512     H      0.971490000000     0.355320000000     0.878300000000     0.180612   
N1       N      0.548410000000     0.482360000000     0.887540000000    -0.176485   
N2       N      0.528940000000     0.482890000000     0.639180000000    -0.191428   
N3       N      0.445460000000     0.501390000000     0.124410000000    -0.173759   
N4       N      0.443540000000     0.493910000000     0.371840000000    -0.191131   
N5       N      0.440270000000     0.592280000000     0.530280000000    -0.176961   
N6       N      0.438220000000     0.834210000000     0.511730000000    -0.194007   
N7       N      0.516480000000     0.133610000000     0.454750000000    -0.176811   
N8       N      0.519270000000     0.376480000000     0.481050000000    -0.192512   
N9       N      0.551840000000     0.021720000000     0.605090000000    -0.177401   
N10      N      0.537210000000     0.007750000000     0.849250000000    -0.192441   
N11      N      0.463640000000     0.990980000000     0.106540000000    -0.177125   
N12      N      0.423170000000     0.952130000000     0.351790000000    -0.193455   
N13      N      0.511380000000     0.633880000000     0.965400000000    -0.175316   
N14      N      0.531690000000     0.887890000000     0.940900000000    -0.192119   
N15      N      0.476600000000     0.348400000000     0.042510000000    -0.176189   
N16      N      0.464480000000     0.102250000000     0.017600000000    -0.190667   
N17      N      0.891430000000     0.352250000000     0.421940000000    -0.177202   
N18      N      0.638260000000     0.108840000000     0.485920000000    -0.192099   
N19      N      0.074240000000     0.613400000000     0.535500000000    -0.17879    
N20      N      0.334570000000     0.856550000000     0.477440000000    -0.192063   
N21      N      0.587370000000     0.513980000000     0.418130000000    -0.179894   
N22      N      0.844060000000     0.501920000000     0.477780000000    -0.191981   
N23      N      0.117480000000     0.471110000000     0.477140000000    -0.178812   
N24      N      0.372390000000     0.473180000000     0.579500000000    -0.193679   
N25      N      0.946020000000     0.484870000000     0.846610000000    -0.176268   
N26      N      0.936670000000     0.492000000000     0.598970000000    -0.191096   
N27      N      0.035310000000     0.486030000000     0.356300000000    -0.175346   
N28      N      0.051400000000     0.495970000000     0.110080000000    -0.190603   
N29      N      0.639050000000     0.105910000000     0.921980000000    -0.176256   
N30      N      0.895690000000     0.347250000000     0.938460000000    -0.19054    
N31      N      0.107690000000     0.633660000000     0.018750000000    -0.178039   
N32      N      0.352080000000     0.883070000000     0.026180000000    -0.193254   
N33      N      0.620160000000     0.459590000000     0.023040000000    -0.174729   
N34      N      0.895400000000     0.477960000000     0.062730000000    -0.193529   
N35      N      0.360250000000     0.511950000000     0.003690000000    -0.17613    
N36      N      0.106550000000     0.512380000000     0.903260000000    -0.197565   
N37      N      0.843340000000     0.868980000000     0.545990000000    -0.174375   
N38      N      0.601020000000     0.619250000000     0.557910000000    -0.191779   
N39      N      0.129070000000     0.099960000000     0.445330000000    -0.176048   
N40      N      0.377740000000     0.346100000000     0.463290000000    -0.193183   
N41      N      0.835550000000     0.974920000000     0.460000000000    -0.17422    
N42      N      0.550040000000     0.933790000000     0.410830000000    -0.19854    
N43      N      0.139990000000     0.004270000000     0.530730000000    -0.175707   
N44      N      0.424920000000     0.046920000000     0.550510000000    -0.192098   
N45      N      0.986830000000     0.626070000000     0.440390000000    -0.174574   
N46      N      0.013300000000     0.885410000000     0.439080000000    -0.193261   
N47      N      0.952410000000     0.087700000000     0.542120000000    -0.178761   
N48      N      0.966310000000     0.344670000000     0.508430000000    -0.190985   
N49      N      0.946270000000     0.967750000000     0.624780000000    -0.176396   
N50      N      0.935280000000     0.948640000000     0.866630000000    -0.194158   
N51      N      0.044930000000     0.012930000000     0.124060000000    -0.177018   
N52      N      0.023800000000     0.999990000000     0.366920000000    -0.192939   
N53      N      0.591140000000     0.618740000000     0.057710000000    -0.178747   
N54      N      0.843460000000     0.859580000000     0.979570000000    -0.191422   
N55      N      0.153810000000     0.097460000000     0.015350000000    -0.175799   
N56      N      0.399620000000     0.350870000000     0.962360000000    -0.192598   
N57      N      0.647170000000     0.004580000000     0.015330000000    -0.176706   
N58      N      0.929150000000     0.033950000000     0.057510000000    -0.196074   
N59      N      0.342880000000     0.972450000000     0.940890000000    -0.174818   
N60      N      0.059440000000     0.905580000000     0.948560000000    -0.193487   
N61      N      0.949100000000     0.588760000000     0.003440000000    -0.179557   
N62      N      0.950280000000     0.828760000000     0.019440000000    -0.193619   
N63      N      0.044180000000     0.383010000000     0.958870000000    -0.176816   
N64      N      0.044790000000     0.133520000000     0.967550000000    -0.192704   
O1       O      0.113540000000     0.044620000000     0.001140000000    -0.384251   
O2       O      0.092700000000     0.072330000000     0.023990000000    -0.347532   
O3       O      0.963580000000     0.985730000000     0.902050000000    -0.378268   
O4       O      0.947330000000     0.930260000000     0.913310000000    -0.376743   
O5       O      0.019720000000     0.080450000000     0.951250000000    -0.375916   
O6       O      0.041150000000     0.089080000000     0.998800000000    -0.367125   
O7       O      0.050540000000     0.934290000000     0.980870000000    -0.345466   
O8       O      0.009560000000     0.914400000000     0.943510000000    -0.361386   
O9       O      0.091470000000     0.010220000000     0.933730000000    -0.365276   
O10      O      0.120990000000     0.990640000000     0.992500000000    -0.521274   
O11      O      0.038210000000     0.049340000000     0.905050000000    -0.526703   
O12      O      0.954540000000     0.040170000000     0.917180000000    -0.339108   
O13      O      0.045910000000     0.033970000000     0.976330000000    -0.502082   
O14      O      0.016270000000     0.980630000000     0.946080000000    -0.626354   
O15      O      0.974270000000     0.881230000000     0.037290000000    -0.36902    
O16      O      0.958250000000     0.874650000000     0.988570000000    -0.372438   
O17      O      0.947630000000     0.995810000000     0.052480000000    -0.349224   
O18      O      0.985660000000     0.049810000000     0.041560000000    -0.353757   
O19      O      0.881440000000     0.913520000000     0.991590000000    -0.378862   
O20      O      0.902870000000     0.887640000000     0.966550000000    -0.36406    
O21      O      0.021820000000     0.975390000000     0.088390000000    -0.369941   
O22      O      0.042010000000     0.031170000000     0.075280000000    -0.357372   
O23      O      0.959910000000     0.908510000000     0.084930000000    -0.521871   
O24      O      0.047480000000     0.928880000000     0.067430000000    -0.348131   
O25      O      0.874400000000     0.945870000000     0.033900000000    -0.338029   
O26      O      0.898120000000     0.998380000000     0.983120000000    -0.535721   
O27      O      0.949190000000     0.927870000000     0.012120000000    -0.629265   
O28      O      0.979030000000     0.981390000000     0.041210000000    -0.462842   
O29      O      0.017610000000     0.940720000000     0.999500000000    -0.471287   
O30      O      0.975900000000     0.021680000000     0.988930000000    -0.629105   
O31      O      0.048980000000     0.994500000000     0.029120000000    -0.629629   
O32      O      0.946080000000     0.967880000000     0.959460000000    -0.4964     
O33      O      0.976790000000     0.899640000000     0.459400000000    -0.371775   
O34      O      0.036680000000     0.937390000000     0.457340000000    -0.37184    
O35      O      0.890940000000     0.985430000000     0.446600000000    -0.35829    
O36      O      0.879180000000     0.976800000000     0.495020000000    -0.360552   
O37      O      0.984320000000     0.993380000000     0.400510000000    -0.379236   
O38      O      0.037520000000     0.994420000000     0.416200000000    -0.372886   
O39      O      0.894740000000     0.888900000000     0.520840000000    -0.377049   
O40      O      0.883420000000     0.926560000000     0.538750000000    -0.345604   
O41      O      0.904040000000     0.866030000000     0.472330000000    -0.331957   
O42      O      0.963870000000     0.875800000000     0.528930000000    -0.531448   
O43      O      0.907220000000     0.947810000000     0.408900000000    -0.524835   
O44      O      0.951110000000     0.036290000000     0.408900000000    -0.339161   
O45      O      0.976440000000     0.953860000000     0.454850000000    -0.49407    
O46      O      0.923410000000     0.949010000000     0.481860000000    -0.637281   
O47      O      0.985760000000     0.973810000000     0.591210000000    -0.37834    
O48      O      0.934520000000     0.976360000000     0.575440000000    -0.355237   
O49      O      0.077210000000     0.082470000000     0.468880000000    -0.360548   
O50      O      0.089960000000     0.043370000000     0.455120000000    -0.36388    
O51      O      0.990220000000     0.075030000000     0.522200000000    -0.369654   
O52      O      0.933370000000     0.032970000000     0.532070000000    -0.356492   
O53      O      0.084300000000     0.993310000000     0.544390000000    -0.354593   
O54      O      0.093220000000     0.994580000000     0.496280000000    -0.367898   
O55      O      0.060710000000     0.017220000000     0.587800000000    -0.522384   
O56      O      0.021600000000     0.931570000000     0.578090000000    -0.336552   
O57      O      0.068150000000     0.096310000000     0.527160000000    -0.324639   
O58      O      0.016910000000     0.099700000000     0.463420000000    -0.523684   
O59      O      0.995770000000     0.016650000000     0.536710000000    -0.637657   
O60      O      0.048630000000     0.021000000000     0.509860000000    -0.499602   
O61      O      0.959960000000     0.945710000000     0.536920000000    -0.499483   
O62      O      0.011860000000     0.024600000000     0.454540000000    -0.636748   
O63      O      0.013550000000     0.948780000000     0.510340000000    -0.633074   
O64      O      0.959160000000     0.021470000000     0.481480000000    -0.496264   
O65      O      0.045150000000     0.421260000000     0.987780000000    -0.374585   
O66      O      0.017670000000     0.415980000000     0.942090000000    -0.352378   
O67      O      0.915920000000     0.451450000000     0.037950000000    -0.382679   
O68      O      0.953180000000     0.506450000000     0.046780000000    -0.360501   
O69      O      0.914410000000     0.388390000000     0.969900000000    -0.37726    
O70      O      0.944630000000     0.400100000000     0.928530000000    -0.353796   
O71      O      0.049200000000     0.476850000000     0.065260000000    -0.372149   
O72      O      0.031600000000     0.516110000000     0.068150000000    -0.372146   
O73      O      0.026530000000     0.411650000000     0.047010000000    -0.337655   
O74      O      0.103830000000     0.482730000000     0.020920000000    -0.527034   
O75      O      0.918890000000     0.390250000000     0.033610000000    -0.523916   
O76      O      0.873500000000     0.422260000000     0.983130000000    -0.348425   
O77      O      0.985360000000     0.432210000000     0.984290000000    -0.499311   
O78      O      0.989480000000     0.466080000000     0.027480000000    -0.640901   
O79      O      0.090630000000     0.593140000000     0.986590000000    -0.382757   
O80      O      0.058060000000     0.580870000000     0.026620000000    -0.354264   
O81      O      0.953940000000     0.505750000000     0.891410000000    -0.37151    
O82      O      0.969700000000     0.465570000000     0.887040000000    -0.355322   
O83      O      0.949860000000     0.553870000000     0.971510000000    -0.353821   
O84      O      0.984130000000     0.563750000000     0.014570000000    -0.372233   
O85      O      0.064970000000     0.529550000000     0.908230000000    -0.360114   
O86      O      0.045670000000     0.475710000000     0.903210000000    -0.349295   
O87      O      0.104230000000     0.596320000000     0.929660000000    -0.523832   
O88      O      0.126290000000     0.545000000000     0.970370000000    -0.363154   
O89      O      0.985590000000     0.574980000000     0.913340000000    -0.346071   
O90      O      0.902010000000     0.504300000000     0.929110000000    -0.520374   
O91      O      0.019450000000     0.550350000000     0.970900000000    -0.633905   
O92      O      0.014020000000     0.515660000000     0.928560000000    -0.476773   
O93      O      0.057780000000     0.520730000000     0.007920000000    -0.497746   
O94      O      0.946220000000     0.461730000000     0.947750000000    -0.63497    
O95      O      0.051310000000     0.485490000000     0.964580000000    -0.622229   
O96      O      0.952600000000     0.495720000000     0.990890000000    -0.495587   
O97      O      0.960490000000     0.389100000000     0.520800000000    -0.375346   
O98      O      0.987280000000     0.394170000000     0.478840000000    -0.35616    
O99      O      0.873820000000     0.475770000000     0.465490000000    -0.380306   
O100     O      0.903870000000     0.520150000000     0.493710000000    -0.359698   
O101     O      0.898130000000     0.402630000000     0.431020000000    -0.376757   
O102     O      0.948050000000     0.396070000000     0.433140000000    -0.354811   
O103     O      0.946090000000     0.464700000000     0.565280000000    -0.373545   
O104     O      0.949990000000     0.516070000000     0.551480000000    -0.36488    
O105     O      0.903790000000     0.396920000000     0.544720000000    -0.34464    
O106     O      0.995450000000     0.434500000000     0.569810000000    -0.532361   
O107     O      0.851100000000     0.408690000000     0.462040000000    -0.518666   
O108     O      0.889230000000     0.466170000000     0.402830000000    -0.349594   
O109     O      0.943430000000     0.428120000000     0.477830000000    -0.503095   
O110     O      0.927010000000     0.467010000000     0.501590000000    -0.63386    
O111     O      0.052240000000     0.556050000000     0.537120000000    -0.362518   
O112     O      0.015310000000     0.577020000000     0.520230000000    -0.35054    
O113     O      0.022130000000     0.512050000000     0.388920000000    -0.37462    
O114     O      0.017680000000     0.460590000000     0.402910000000    -0.3554     
O115     O      0.996770000000     0.583440000000     0.429240000000    -0.372494   
O116     O      0.971840000000     0.578610000000     0.472180000000    -0.347124   
O117     O      0.089210000000     0.499820000000     0.486500000000    -0.381488   
O118     O      0.057100000000     0.452030000000     0.462740000000    -0.35222    
O119     O      0.102290000000     0.574600000000     0.483270000000    -0.534215   
O120     O      0.091050000000     0.518640000000     0.542030000000    -0.334134   
O121     O      0.056050000000     0.580260000000     0.406780000000    -0.334582   
O122     O      0.964730000000     0.534510000000     0.381540000000    -0.528323   
O123     O      0.019050000000     0.547160000000     0.474120000000    -0.633971   
O124     O      0.035260000000     0.507460000000     0.450800000000    -0.493805   
O125     O      0.998690000000     0.501660000000     0.526100000000    -0.488377   
O126     O      0.963570000000     0.472360000000     0.425820000000    -0.634321   
O127     O      0.015340000000     0.461910000000     0.502670000000    -0.633582   
O128     O      0.947320000000     0.513320000000     0.450120000000    -0.492555   
O129     O      0.398840000000     0.984030000000     0.927520000000    -0.358655   
O130     O      0.390810000000     0.986790000000     0.975020000000    -0.366317   
O131     O      0.494220000000     0.902620000000     0.959130000000    -0.375797   
O132     O      0.549480000000     0.944000000000     0.945010000000    -0.365202   
O133     O      0.405670000000     0.900230000000     0.005930000000    -0.386765   
O134     O      0.392510000000     0.939870000000     0.017640000000    -0.363847   
O135     O      0.498300000000     0.003720000000     0.882310000000    -0.370391   
O136     O      0.548000000000     0.998570000000     0.898700000000    -0.371456   
O137     O      0.422510000000     0.953720000000     0.888390000000    -0.339192   
O138     O      0.458500000000     0.041050000000     0.890980000000    -0.525436   
O139     O      0.417900000000     0.881770000000     0.951830000000    -0.522801   
O140     O      0.465830000000     0.882990000000     0.018860000000    -0.341845   
O141     O      0.435400000000     0.959070000000     0.965120000000    -0.49773    
O142     O      0.487150000000     0.960360000000     0.938650000000    -0.634394   
O143     O      0.586760000000     0.090390000000     0.944350000000    -0.360426   
O144     O      0.600220000000     0.050020000000     0.935150000000    -0.365532   
O145     O      0.502040000000     0.995760000000     0.072770000000    -0.363274   
O146     O      0.446990000000     0.990640000000     0.057130000000    -0.369271   
O147     O      0.593000000000     0.998090000000     0.027810000000    -0.355441   
O148     O      0.603550000000     0.001300000000     0.979700000000    -0.367886   
O149     O      0.500380000000     0.087520000000     0.996410000000    -0.375387   
O150     O      0.446280000000     0.046100000000     0.012690000000    -0.367285   
O151     O      0.579630000000     0.106420000000     0.004240000000    -0.531628   
O152     O      0.530870000000     0.111130000000     0.939660000000    -0.32789    
O153     O      0.579660000000     0.039490000000     0.062370000000    -0.32958    
O154     O      0.533050000000     0.950910000000     0.067500000000    -0.523783   
O155     O      0.560380000000     0.032200000000     0.989910000000    -0.636385   
O156     O      0.507840000000     0.030410000000     0.016200000000    -0.493541   
O157     O      0.523150000000     0.031770000000     0.934680000000    -0.492959   
O158     O      0.472310000000     0.958880000000     0.020700000000    -0.633784   
O159     O      0.470330000000     0.030790000000     0.960580000000    -0.632345   
O160     O      0.524790000000     0.959860000000     0.994770000000    -0.49386    
O161     O      0.491340000000     0.079670000000     0.439420000000    -0.356411   
O162     O      0.520540000000     0.091200000000     0.484300000000    -0.370178   
O163     O      0.374990000000     0.908810000000     0.491760000000    -0.38129    
O164     O      0.389920000000     0.888090000000     0.456270000000    -0.367396   
O165     O      0.427720000000     0.001020000000     0.540940000000    -0.380911   
O166     O      0.473290000000     0.052710000000     0.527060000000    -0.345681   
O167     O      0.441940000000     0.985990000000     0.389530000000    -0.383393   
O168     O      0.434410000000     0.932720000000     0.398610000000    -0.368918   
O169     O      0.412680000000     0.024350000000     0.421230000000    -0.332668   
O170     O      0.493510000000     0.054850000000     0.387190000000    -0.517626   
O171     O      0.375300000000     0.981720000000     0.481420000000    -0.528506   
O172     O      0.379740000000     0.934240000000     0.542440000000    -0.328929   
O173     O      0.458340000000     0.020430000000     0.481050000000    -0.491965   
O174     O      0.426890000000     0.964910000000     0.452080000000    -0.628303   
O175     O      0.527630000000     0.969900000000     0.412770000000    -0.35899    
O176     O      0.493270000000     0.916020000000     0.426950000000    -0.36561    
O177     O      0.531880000000     0.985520000000     0.568640000000    -0.379425   
O178     O      0.537510000000     0.037950000000     0.558170000000    -0.365979   
O179     O      0.468970000000     0.889420000000     0.522680000000    -0.370349   
O180     O      0.444920000000     0.876660000000     0.476240000000    -0.366927   
O181     O      0.597600000000     0.057360000000     0.470230000000    -0.383853   
O182     O      0.580010000000     0.080150000000     0.502080000000    -0.363647   
O183     O      0.592380000000     0.981370000000     0.470530000000    -0.532389   
O184     O      0.594230000000     0.034100000000     0.417710000000    -0.338362   
O185     O      0.556700000000     0.942640000000     0.532380000000    -0.361066   
O186     O      0.485830000000     0.918400000000     0.574160000000    -0.516515   
O187     O      0.511850000000     0.948110000000     0.477480000000    -0.623739   
O188     O      0.543560000000     0.004570000000     0.505650000000    -0.501351   
O189     O      0.493930000000     0.984790000000     0.428890000000    -0.471991   
O190     O      0.476200000000     0.984310000000     0.529740000000    -0.63679    
O191     O      0.525400000000     0.038920000000     0.456710000000    -0.632321   
O192     O      0.446130000000     0.930870000000     0.501200000000    -0.494162   
O193     O      0.466830000000     0.392070000000     0.051290000000    -0.362489   
O194     O      0.499390000000     0.397510000000     0.012790000000    -0.352391   
O195     O      0.387340000000     0.482840000000     0.992420000000    -0.366313   
O196     O      0.420400000000     0.530250000000     0.016850000000    -0.354345   
O197     O      0.408340000000     0.403560000000     0.966280000000    -0.378559   
O198     O      0.457360000000     0.395610000000     0.968350000000    -0.357049   
O199     O      0.454580000000     0.472090000000     0.092120000000    -0.370917   
O200     O      0.462660000000     0.524490000000     0.076920000000    -0.345483   
O201     O      0.410040000000     0.403800000000     0.071440000000    -0.340311   
O202     O      0.500460000000     0.437890000000     0.100330000000    -0.526119   
O203     O      0.360560000000     0.418410000000     0.981160000000    -0.514045   
O204     O      0.408770000000     0.472430000000     0.927500000000    -0.355248   
O205     O      0.453890000000     0.432720000000     0.006740000000    -0.499092   
O206     O      0.438720000000     0.473990000000     0.028270000000    -0.634568   
O207     O      0.564190000000     0.560710000000     0.064420000000    -0.365518   
O208     O      0.530520000000     0.584330000000     0.045490000000    -0.339294   
O209     O      0.537000000000     0.511310000000     0.918430000000    -0.36254    
O210     O      0.527820000000     0.458360000000     0.933740000000    -0.374575   
O211     O      0.515560000000     0.587400000000     0.955710000000    -0.374768   
O212     O      0.489510000000     0.585430000000     0.996910000000    -0.343837   
O213     O      0.594780000000     0.491650000000     0.029300000000    -0.374973   
O214     O      0.568090000000     0.452310000000     0.995810000000    -0.353866   
O215     O      0.614550000000     0.570690000000     0.006390000000    -0.532269   
O216     O      0.607430000000     0.531230000000     0.071470000000    -0.324182   
O217     O      0.572530000000     0.580560000000     0.934120000000    -0.323968   
O218     O      0.482310000000     0.537380000000     0.908240000000    -0.525876   
O219     O      0.533870000000     0.550530000000     0.001640000000    -0.636569   
O220     O      0.548800000000     0.508480000000     0.980840000000    -0.489592   
O221     O      0.509970000000     0.506340000000     0.054530000000    -0.484762   
O222     O      0.476840000000     0.474690000000     0.954430000000    -0.629684   
O223     O      0.524100000000     0.464250000000     0.033400000000    -0.638912   
O224     O      0.462600000000     0.518760000000     0.976300000000    -0.493346   
O225     O      0.519100000000     0.410460000000     0.514180000000    -0.370375   
O226     O      0.497440000000     0.412970000000     0.466860000000    -0.369427   
O227     O      0.402990000000     0.446920000000     0.568630000000    -0.382705   
O228     O      0.433360000000     0.502950000000     0.572390000000    -0.354079   
O229     O      0.395280000000     0.387040000000     0.494860000000    -0.381478   
O230     O      0.425720000000     0.399430000000     0.453510000000    -0.370284   
O231     O      0.524210000000     0.464630000000     0.593510000000    -0.37596    
O232     O      0.510070000000     0.505890000000     0.598350000000    -0.376229   
O233     O      0.492610000000     0.397950000000     0.572290000000    -0.336118   
O234     O      0.577200000000     0.465430000000     0.552330000000    -0.530373   
O235     O      0.375270000000     0.385060000000     0.549000000000    -0.517264   
O236     O      0.359040000000     0.437310000000     0.502450000000    -0.356544   
O237     O      0.461660000000     0.427130000000     0.509940000000    -0.496792   
O238     O      0.466960000000     0.459580000000     0.554100000000    -0.630344   
O239     O      0.580240000000     0.580040000000     0.524380000000    -0.386059   
O240     O      0.543450000000     0.573210000000     0.559850000000    -0.36027    
O241     O      0.448340000000     0.512510000000     0.417410000000    -0.371155   
O242     O      0.457040000000     0.467790000000     0.413410000000    -0.371067   
O243     O      0.444140000000     0.559170000000     0.498430000000    -0.371973   
O244     O      0.468270000000     0.560200000000     0.545040000000    -0.352502   
O245     O      0.551270000000     0.529840000000     0.437950000000    -0.358139   
O246     O      0.530350000000     0.475290000000     0.433050000000    -0.352946   
O247     O      0.591220000000     0.592140000000     0.466860000000    -0.520945   
O248     O      0.608540000000     0.532830000000     0.496050000000    -0.365547   
O249     O      0.475670000000     0.577510000000     0.441800000000    -0.338384   
O250     O      0.391060000000     0.507770000000     0.456070000000    -0.528209   
O251     O      0.506440000000     0.547070000000     0.501580000000    -0.631118   
O252     O      0.500580000000     0.514040000000     0.457520000000    -0.483098   
O253     O      0.537590000000     0.510820000000     0.538250000000    -0.500023   
O254     O      0.429340000000     0.462740000000     0.472780000000    -0.631605   
O255     O      0.531680000000     0.477620000000     0.493800000000    -0.629463   
O256     O      0.436670000000     0.495880000000     0.517430000000    -0.489202   
O257     O      0.594410000000     0.573180000000     0.863180000000    -0.336477   
O258     O      0.607150000000     0.548210000000     0.904200000000    -0.225773   
O259     O      0.461910000000     0.587980000000     0.115820000000    -0.323715   
O260     O      0.419720000000     0.546990000000     0.089330000000    -0.218934   
O261     O      0.448850000000     0.580670000000     0.607900000000    -0.336468   
O262     O      0.498770000000     0.608030000000     0.582570000000    -0.234879   
O263     O      0.485930000000     0.132160000000     0.379290000000    -0.335526   
O264     O      0.446750000000     0.102110000000     0.414060000000    -0.226409   
O265     O      0.544120000000     0.097170000000     0.605430000000    -0.335181   
O266     O      0.497740000000     0.047550000000     0.593670000000    -0.241317   
O267     O      0.556560000000     0.030120000000     0.139540000000    -0.336512   
O268     O      0.534750000000     0.052410000000     0.102150000000    -0.232335   
O269     O      0.439540000000     0.632410000000     0.998990000000    -0.334144   
O270     O      0.479510000000     0.622410000000     0.027900000000    -0.212565   
O271     O      0.556740000000     0.359590000000     0.008760000000    -0.333482   
O272     O      0.555700000000     0.390710000000     0.042050000000    -0.22206    
O273     O      0.817410000000     0.360370000000     0.377420000000    -0.341525   
O274     O      0.876640000000     0.388040000000     0.370950000000    -0.244332   
O275     O      0.029450000000     0.664560000000     0.508880000000    -0.336367   
O276     O      0.015160000000     0.625240000000     0.546660000000    -0.221449   
O277     O      0.566460000000     0.429370000000     0.400010000000    -0.33632    
O278     O      0.539080000000     0.459170000000     0.381410000000    -0.226776   
O279     O      0.074350000000     0.382800000000     0.501460000000    -0.336909   
O280     O      0.066170000000     0.400980000000     0.455290000000    -0.223573   
O281     O      0.938740000000     0.404250000000     0.832290000000    -0.331398   
O282     O      0.910520000000     0.411970000000     0.866380000000    -0.236328   
O283     O      0.080020000000     0.460560000000     0.395520000000    -0.323212   
O284     O      0.050750000000     0.415520000000     0.369390000000    -0.2288     
O285     O      0.582800000000     0.120720000000     0.889430000000    -0.323236   
O286     O      0.615890000000     0.171800000000     0.906120000000    -0.235394   
O287     O      0.083360000000     0.623860000000     0.094660000000    -0.335164   
O288     O      0.100560000000     0.591650000000     0.075560000000    -0.230447   
O289     O      0.638560000000     0.481050000000     0.100310000000    -0.333242   
O290     O      0.585170000000     0.447350000000     0.078620000000    -0.246059   
O291     O      0.289600000000     0.422290000000     0.002250000000    -0.340935   
O292     O      0.337270000000     0.445050000000     0.033980000000    -0.245      
O293     O      0.828860000000     0.908630000000     0.601510000000    -0.33517    
O294     O      0.826210000000     0.926440000000     0.554190000000    -0.226828   
O295     O      0.071380000000     0.114110000000     0.415000000000    -0.335666   
O296     O      0.103920000000     0.164750000000     0.432590000000    -0.242636   
O297     O      0.884740000000     0.041940000000     0.428820000000    -0.323078   
O298     O      0.849830000000     0.019390000000     0.389010000000    -0.239493   
O299     O      0.136380000000     0.986240000000     0.610600000000    -0.338032   
O300     O      0.101320000000     0.949990000000     0.577450000000    -0.229394   
O301     O      0.927640000000     0.620230000000     0.495500000000    -0.33563    
O302     O      0.911980000000     0.585300000000     0.460090000000    -0.229163   
O303     O      0.009790000000     0.083910000000     0.582590000000    -0.32946    
O304     O      0.041180000000     0.139900000000     0.573890000000    -0.235619   
O305     O      0.933010000000     0.025600000000     0.601480000000    -0.321263   
O306     O      0.876620000000     0.990990000000     0.614650000000    -0.241743   
O307     O      0.078110000000     0.103480000000     0.115920000000    -0.323842   
O308     O      0.021480000000     0.065650000000     0.103060000000    -0.224723   
O309     O      0.552010000000     0.676760000000     0.046890000000    -0.333198   
O310     O      0.537510000000     0.631560000000     0.078870000000    -0.20912    
O311     O      0.138580000000     0.154780000000     0.053440000000    -0.335122   
O312     O      0.128830000000     0.103340000000     0.071420000000    -0.21914    
O313     O      0.634570000000     0.971570000000     0.092740000000    -0.333498   
O314     O      0.599930000000     0.945180000000     0.054130000000    -0.232613   
O315     O      0.378980000000     0.025100000000     0.890560000000    -0.331734   
O316     O      0.344940000000     0.981830000000     0.863200000000    -0.2386     
O317     O      0.860130000000     0.555580000000     0.963110000000    -0.338934   
O318     O      0.882880000000     0.525540000000     0.990230000000    -0.237506   
O319     O      0.982970000000     0.350440000000     0.896270000000    -0.333633   
O320     O      0.032190000000     0.401260000000     0.892980000000    -0.225913   
Zr1      Zr     0.065300000000     0.992890000000     0.981730000000     1.36157    
Zr2      Zr     0.995160000000     0.020670000000     0.942740000000     1.3779     
Zr3      Zr     0.999920000000     0.941470000000     0.046000000000     1.37662    
Zr4      Zr     0.928880000000     0.968360000000     0.006760000000     1.35612    
Zr5      Zr     0.027230000000     0.034530000000     0.023110000000     1.38687    
Zr6      Zr     0.967670000000     0.927890000000     0.964640000000     1.36859    
Zr7      Zr     0.951400000000     0.915050000000     0.496110000000     1.37742    
Zr8      Zr     0.949780000000     0.989140000000     0.441500000000     1.38441    
Zr9      Zr     0.022010000000     0.980980000000     0.550240000000     1.38693    
Zr10     Zr     0.021480000000     0.055510000000     0.495350000000     1.39835    
Zr11     Zr     0.038520000000     0.989070000000     0.469270000000     1.37848    
Zr12     Zr     0.933430000000     0.981280000000     0.522380000000     1.38829    
Zr13     Zr     0.039430000000     0.462000000000     0.013900000000     1.37797    
Zr14     Zr     0.936440000000     0.437760000000     0.997110000000     1.39413    
Zr15     Zr     0.068440000000     0.543940000000     0.958350000000     1.36528    
Zr16     Zr     0.964710000000     0.520710000000     0.942300000000     1.3804     
Zr17     Zr     0.995970000000     0.456550000000     0.934770000000     1.38497    
Zr18     Zr     0.007070000000     0.524780000000     0.019880000000     1.38926    
Zr19     Zr     0.961170000000     0.442200000000     0.526870000000     1.38376    
Zr20     Zr     0.911080000000     0.453940000000     0.451760000000     1.3967     
Zr21     Zr     0.051760000000     0.521690000000     0.500240000000     1.38061    
Zr22     Zr     0.000890000000     0.532060000000     0.425230000000     1.39028    
Zr23     Zr     0.997250000000     0.447450000000     0.452980000000     1.38127    
Zr24     Zr     0.965090000000     0.527040000000     0.499950000000     1.37992    
Zr25     Zr     0.461030000000     0.995750000000     0.922740000000     1.38426    
Zr26     Zr     0.462530000000     0.925010000000     0.981950000000     1.38771    
Zr27     Zr     0.532840000000     0.065980000000     0.973070000000     1.38706    
Zr28     Zr     0.534600000000     0.995510000000     0.032210000000     1.3917     
Zr29     Zr     0.445350000000     0.993740000000     0.003620000000     1.36906    
Zr30     Zr     0.549510000000     0.996540000000     0.951840000000     1.37733    
Zr31     Zr     0.467790000000     0.019870000000     0.431450000000     1.38676    
Zr32     Zr     0.419810000000     0.965700000000     0.502510000000     1.38965    
Zr33     Zr     0.550680000000     0.002820000000     0.455390000000     1.37013    
Zr34     Zr     0.503390000000     0.950280000000     0.527140000000     1.37948    
Zr35     Zr     0.515730000000     0.038960000000     0.507060000000     1.37801    
Zr36     Zr     0.453880000000     0.929670000000     0.450640000000     1.36664    
Zr37     Zr     0.469540000000     0.446990000000     0.055690000000     1.38943    
Zr38     Zr     0.423850000000     0.459650000000     0.978630000000     1.38739    
Zr39     Zr     0.563620000000     0.523690000000     0.030140000000     1.38432    
Zr40     Zr     0.516450000000     0.534130000000     0.953010000000     1.38718    
Zr41     Zr     0.508410000000     0.448840000000     0.983920000000     1.37267    
Zr42     Zr     0.479680000000     0.533720000000     0.025980000000     1.38918    
Zr43     Zr     0.514650000000     0.451270000000     0.541740000000     1.37472    
Zr44     Zr     0.414730000000     0.436820000000     0.521240000000     1.37525    
Zr45     Zr     0.552880000000     0.536650000000     0.489920000000     1.37109    
Zr46     Zr     0.453270000000     0.522500000000     0.469660000000     1.38269    
Zr47     Zr     0.477850000000     0.454470000000     0.461900000000     1.38287    
Zr48     Zr     0.489550000000     0.519530000000     0.549660000000     1.37956    


