data_structure

_audit_creation_method RASPA-1.0
_audit_creation_date 2023-6-4
_audit_author_name 'Poobodin Mano'

_cell_length_a    34.0497
_cell_length_b    37.5865
_cell_length_c    38.1669
_cell_angle_alpha 82.7609
_cell_angle_beta  96.3237
_cell_angle_gamma 119.44
_cell_volume      42134

_symmetry_cell_setting          triclinic
_symmetry_space_group_name_Hall 'P 1'
_symmetry_space_group_name_H-M  'P 1'
_symmetry_Int_Tables_number     1

_symmetry_equiv_pos_as_xyz 'x,y,z'

loop_
_atom_site_label
_atom_site_type_symbol
_atom_site_fract_x
_atom_site_fract_y
_atom_site_fract_z
_atom_site_charge
Br1      Br     0.555540000000     0.420240000000     0.846170000000    -0.23149    
Br2      Br     0.557840000000     0.478110000000     0.152300000000    -0.24163    
Br3      Br     0.370460000000     0.778450000000     0.429170000000    -0.245874   
Br4      Br     0.591470000000     0.171080000000     0.532040000000    -0.244787   
Br5      Br     0.492040000000     0.053210000000     0.803800000000    -0.244587   
Br6      Br     0.494460000000     0.911050000000     0.150720000000    -0.25158    
Br7      Br     0.460180000000     0.830960000000     0.876640000000    -0.26165    
Br8      Br     0.528860000000     0.135140000000     0.078750000000    -0.246206   
Br9      Br     0.769310000000     0.332670000000     0.398160000000    -0.260144   
Br10     Br     0.063690000000     0.660430000000     0.554210000000    -0.238254   
Br11     Br     0.894020000000     0.602260000000     0.454140000000    -0.236899   
Br12     Br     0.072500000000     0.363740000000     0.493030000000    -0.238194   
Br13     Br     0.938020000000     0.549990000000     0.808650000000    -0.235402   
Br14     Br     0.058720000000     0.411780000000     0.136820000000    -0.234931   
Br15     Br     0.930810000000     0.288700000000     0.925700000000    -0.23813    
Br16     Br     0.053810000000     0.661010000000     0.037730000000    -0.224194   
Br17     Br     0.792700000000     0.382540000000     0.068500000000    -0.233857   
Br18     Br     0.187870000000     0.595040000000     0.882120000000    -0.25059    
Br19     Br     0.780450000000     0.828260000000     0.442220000000    -0.255671   
Br20     Br     0.173410000000     0.112060000000     0.520690000000    -0.244483   
Br21     Br     0.816440000000     0.991400000000     0.354270000000    -0.234736   
Br22     Br     0.159840000000     0.000480000000     0.591160000000    -0.225171   
Br23     Br     0.936550000000     0.816000000000     0.377810000000    -0.230734   
Br24     Br     0.980210000000     0.300870000000     0.430120000000    -0.215814   
Br25     Br     0.972270000000     0.894550000000     0.640710000000    -0.242053   
Br26     Br     0.066020000000     0.931350000000     0.140100000000    -0.240034   
Br27     Br     0.704490000000     0.619150000000     0.057350000000    -0.252523   
Br28     Br     0.277670000000     0.344880000000     0.911080000000    -0.263952   
Br29     Br     0.948680000000     0.114370000000     0.017460000000    -0.244571   
Br30     Br     0.032540000000     0.834650000000     0.948530000000    -0.243828   
Br31     Br     0.931880000000     0.586210000000     0.063210000000    -0.212703   
Br32     Br     0.990890000000     0.148840000000     0.882690000000    -0.245432   
C1       C      0.137420000000     0.087450000000     0.992140000000     0.406429   
C2       C      0.936380000000     0.953950000000     0.849290000000     0.3912     
C3       C      0.034240000000     0.119290000000     0.954140000000     0.41761    
C4       C      0.047410000000     0.919080000000     0.903030000000     0.400511   
C5       C      0.944230000000     0.832280000000     0.988650000000     0.410781   
C6       C      0.938230000000     0.025070000000     0.048850000000     0.384996   
C7       C      0.840590000000     0.865590000000     0.950170000000     0.400272   
C8       C      0.038680000000     0.996180000000     0.094980000000     0.404673   
C9       C      0.013900000000     0.878730000000     0.428520000000     0.403624   
C10      C      0.836270000000     0.967620000000     0.437420000000     0.40105    
C11      C      0.017760000000     0.989690000000     0.350180000000     0.396554   
C12      C      0.837300000000     0.871400000000     0.510220000000     0.406244   
C13      C      0.942490000000     0.956120000000     0.593360000000     0.405475   
C14      C      0.131570000000     0.079480000000     0.445190000000     0.407996   
C15      C      0.949480000000     0.075070000000     0.514380000000     0.39342    
C16      C      0.131820000000     0.997210000000     0.505770000000     0.40711    
C17      C      0.039550000000     0.376220000000     0.963150000000     0.40863    
C18      C      0.877360000000     0.462430000000     0.034460000000     0.412069   
C19      C      0.897550000000     0.355130000000     0.915290000000     0.41014    
C20      C      0.020780000000     0.473860000000     0.098750000000     0.409369   
C21      C      0.096750000000     0.602890000000     0.029540000000     0.405394   
C22      C      0.975840000000     0.487320000000     0.845180000000     0.411335   
C23      C      0.954330000000     0.581320000000     0.982990000000     0.413032   
C24      C      0.107590000000     0.502190000000     0.898870000000     0.396687   
C25      C      0.952670000000     0.335340000000     0.493790000000     0.403387   
C26      C      0.868510000000     0.512040000000     0.487570000000     0.414237   
C27      C      0.871940000000     0.352370000000     0.420790000000     0.413664   
C28      C      0.953360000000     0.484470000000     0.587580000000     0.400903   
C29      C      0.089890000000     0.594880000000     0.527440000000     0.404405   
C30      C      0.018880000000     0.470330000000     0.353870000000     0.402607   
C31      C      0.006700000000     0.615930000000     0.443140000000     0.396089   
C32      C      0.092380000000     0.449530000000     0.447310000000     0.388521   
C33      C      0.341750000000     0.957340000000     0.943740000000     0.3962     
C34      C      0.529710000000     0.887630000000     0.934020000000     0.407587   
C35      C      0.348230000000     0.872390000000     0.012380000000     0.396134   
C36      C      0.530950000000     0.000840000000     0.855370000000     0.406301   
C37      C      0.631940000000     0.094190000000     0.934420000000     0.3947     
C38      C      0.454900000000     0.963470000000     0.099780000000     0.402095   
C39      C      0.639750000000     0.995320000000     0.011470000000     0.391493   
C40      C      0.456380000000     0.076770000000     0.023270000000     0.404161   
C41      C      0.527980000000     0.118920000000     0.465140000000     0.412822   
C42      C      0.333700000000     0.864170000000     0.464520000000     0.402161   
C43      C      0.431320000000     0.033380000000     0.548710000000     0.392059   
C44      C      0.433180000000     0.957090000000     0.355460000000     0.397084   
C45      C      0.529880000000     0.927010000000     0.398220000000     0.370736   
C46      C      0.541670000000     0.996840000000     0.600190000000     0.384287   
C47      C      0.438760000000     0.832090000000     0.493330000000     0.411788   
C48      C      0.635670000000     0.085200000000     0.495970000000     0.395611   
C49      C      0.471320000000     0.343500000000     0.007010000000     0.387288   
C50      C      0.381310000000     0.511970000000     0.009500000000     0.398903   
C51      C      0.377460000000     0.357650000000     0.933920000000     0.418717   
C52      C      0.490080000000     0.500400000000     0.101740000000     0.415174   
C53      C      0.604620000000     0.604310000000     0.030470000000     0.416134   
C54      C      0.501870000000     0.467620000000     0.860180000000     0.417792   
C55      C      0.510240000000     0.619500000000     0.954620000000     0.383207   
C56      C      0.596430000000     0.457780000000     0.941080000000     0.38856    
C57      C      0.524570000000     0.372750000000     0.471200000000     0.405066   
C58      C      0.375470000000     0.462780000000     0.549640000000     0.397226   
C59      C      0.395740000000     0.341500000000     0.446940000000     0.389286   
C60      C      0.520710000000     0.480350000000     0.605630000000     0.401268   
C61      C      0.588860000000     0.604460000000     0.529650000000     0.398647   
C62      C      0.455570000000     0.477530000000     0.354380000000     0.405205   
C63      C      0.441810000000     0.578290000000     0.489860000000     0.404272   
C64      C      0.585630000000     0.494690000000     0.401510000000     0.381122   
C65      C      0.527100000000     0.446020000000     0.814270000000     0.189767   
C66      C      0.488650000000     0.484900000000     0.800620000000     0.0831715  
C67      C      0.533670000000     0.448320000000     0.778250000000    -0.122819   
C68      C      0.524890000000     0.442990000000     0.698330000000    -0.0799559  
C69      C      0.493660000000     0.486670000000     0.764890000000    -0.097764   
C70      C      0.525710000000     0.474420000000     0.715140000000     0.0293475  
C71      C      0.517690000000     0.469540000000     0.753270000000     0.0569792  
C72      C      0.526430000000     0.446620000000     0.661570000000     0.0678623  
C73      C      0.531350000000     0.512130000000     0.658160000000     0.0710936  
C74      C      0.531520000000     0.510170000000     0.694690000000    -0.0821034  
C75      C      0.511550000000     0.490300000000     0.162290000000     0.194133   
C76      C      0.464000000000     0.520270000000     0.146640000000     0.0802027  
C77      C      0.503790000000     0.487410000000     0.197790000000    -0.125909   
C78      C      0.456070000000     0.455130000000     0.264410000000    -0.0821137  
C79      C      0.455280000000     0.517350000000     0.182090000000    -0.0959861  
C80      C      0.462320000000     0.491620000000     0.245240000000     0.0296251  
C81      C      0.473850000000     0.499150000000     0.207860000000     0.057674   
C82      C      0.451780000000     0.450210000000     0.300650000000     0.0721937  
C83      C      0.454900000000     0.514850000000     0.299100000000     0.0690569  
C84      C      0.459950000000     0.521070000000     0.262640000000    -0.0802832  
C85      C      0.398720000000     0.764640000000     0.471400000000     0.188882   
C86      C      0.442690000000     0.775900000000     0.525860000000     0.0754757  
C87      C      0.390740000000     0.724430000000     0.474150000000    -0.127187   
C88      C      0.414620000000     0.660720000000     0.465220000000    -0.0827454  
C89      C      0.437280000000     0.736510000000     0.527990000000    -0.0965363  
C90      C      0.413850000000     0.672500000000     0.498500000000     0.0278264  
C91      C      0.412490000000     0.710850000000     0.501100000000     0.0548252  
C92      C      0.421590000000     0.627750000000     0.462820000000     0.0680011  
C93      C      0.426780000000     0.617310000000     0.525400000000     0.0687697  
C94      C      0.418500000000     0.649420000000     0.528780000000    -0.0842039  
C95      C      0.565570000000     0.185520000000     0.488600000000     0.189205   
C96      C      0.523140000000     0.175020000000     0.433370000000     0.0761119  
C97      C      0.572940000000     0.225470000000     0.486260000000    -0.126604   
C98      C      0.545990000000     0.286890000000     0.495450000000    -0.0827252  
C99      C      0.527860000000     0.214120000000     0.431670000000    -0.0967282  
C100     C      0.549440000000     0.276910000000     0.462140000000     0.02954    
C101     C      0.551570000000     0.239150000000     0.459120000000     0.0570238  
C102     C      0.539660000000     0.320130000000     0.498110000000     0.0695819  
C103     C      0.539790000000     0.333910000000     0.435670000000     0.0703616  
C104     C      0.547360000000     0.301460000000     0.432100000000    -0.0827078  
C105     C      0.522160000000     0.023560000000     0.794290000000     0.190382   
C106     C      0.566630000000     0.990680000000     0.810220000000     0.0764229  
C107     C      0.528340000000     0.024340000000     0.758490000000    -0.12189    
C108     C      0.564380000000     0.040380000000     0.685760000000    -0.0793727  
C109     C      0.572910000000     0.990780000000     0.774470000000    -0.0939471  
C110     C      0.557210000000     0.006480000000     0.709630000000     0.0298993  
C111     C      0.553260000000     0.007410000000     0.748050000000     0.0564283  
C112     C      0.561510000000     0.037310000000     0.649320000000     0.0681129  
C113     C      0.547180000000     0.968620000000     0.659280000000     0.0652604  
C114     C      0.550090000000     0.970740000000     0.695980000000    -0.0815168  
C115     C      0.462800000000     0.939140000000     0.160610000000     0.188427   
C116     C      0.417630000000     0.971380000000     0.145130000000     0.0774169  
C117     C      0.455140000000     0.936500000000     0.196400000000    -0.120965   
C118     C      0.430920000000     0.986860000000     0.259930000000    -0.0818806  
C119     C      0.409990000000     0.969540000000     0.180880000000    -0.0920909  
C120     C      0.423970000000     0.951630000000     0.245540000000     0.0300989  
C121     C      0.429170000000     0.952220000000     0.207080000000     0.05436    
C122     C      0.432160000000     0.987630000000     0.296650000000     0.0684648  
C123     C      0.416540000000     0.918520000000     0.305310000000     0.0699294  
C124     C      0.415660000000     0.916890000000     0.268720000000    -0.0793074  
C125     C      0.507250000000     0.826430000000     0.906560000000     0.189428   
C126     C      0.574950000000     0.855030000000     0.942870000000     0.0764361  
C127     C      0.508500000000     0.789600000000     0.907520000000    -0.122634   
C128     C      0.535520000000     0.724020000000     0.969600000000    -0.0810891  
C129     C      0.576180000000     0.817850000000     0.945370000000    -0.0926499  
C130     C      0.537470000000     0.742270000000     0.935060000000     0.0266255  
C131     C      0.541730000000     0.784100000000     0.928520000000     0.053202   
C132     C      0.525720000000     0.682940000000     0.975550000000     0.0641515  
C133     C      0.522010000000     0.677780000000     0.914010000000     0.0641293  
C134     C      0.530460000000     0.718520000000     0.907100000000    -0.0795118  
C135     C      0.480050000000     0.138580000000     0.050550000000     0.189307   
C136     C      0.410590000000     0.108950000000     0.016460000000     0.0745501  
C137     C      0.478120000000     0.175040000000     0.050440000000    -0.121683   
C138     C      0.448120000000     0.239900000000     0.990830000000    -0.0801895  
C139     C      0.408640000000     0.145740000000     0.014800000000    -0.0926202  
C140     C      0.446650000000     0.221280000000     0.025160000000     0.027395   
C141     C      0.443500000000     0.179810000000     0.031000000000     0.0532369  
C142     C      0.456880000000     0.280710000000     0.985400000000     0.0657678  
C143     C      0.460200000000     0.284840000000     0.047070000000     0.0661597  
C144     C      0.452930000000     0.244370000000     0.053470000000    -0.0791928  
C145     C      0.794910000000     0.299500000000     0.421350000000     0.191562   
C146     C      0.854080000000     0.282750000000     0.430420000000     0.078253   
C147     C      0.764950000000     0.261160000000     0.436990000000    -0.126194   
C148     C      0.744910000000     0.157830000000     0.461350000000    -0.0807543  
C149     C      0.824880000000     0.243990000000     0.446020000000    -0.0921361  
C150     C      0.749190000000     0.194540000000     0.470090000000     0.0271291  
C151     C      0.780470000000     0.233950000000     0.451370000000     0.055712   
C152     C      0.708990000000     0.120800000000     0.473560000000     0.0677058  
C153     C      0.685410000000     0.155180000000     0.506940000000     0.066645   
C154     C      0.720610000000     0.193000000000     0.494740000000    -0.0763645  
C155     C      0.115110000000     0.666590000000     0.532080000000     0.18702    
C156     C      0.167130000000     0.643860000000     0.524820000000     0.0755111  
C157     C      0.145750000000     0.706250000000     0.518590000000    -0.123637   
C158     C      0.244170000000     0.757760000000     0.461270000000    -0.0761271  
C159     C      0.198340000000     0.682790000000     0.511720000000    -0.0982409  
C160     C      0.218990000000     0.754460000000     0.489520000000     0.0274566  
C161     C      0.186650000000     0.713850000000     0.506060000000     0.0549112  
C162     C      0.280240000000     0.795790000000     0.450430000000     0.0699305  
C163     C      0.263830000000     0.827390000000     0.492240000000     0.0678064  
C164     C      0.227610000000     0.790220000000     0.503560000000    -0.0804034  
C165     C      0.837640000000     0.556220000000     0.468270000000     0.188868   
C166     C      0.793910000000     0.490830000000     0.498140000000     0.0810598  
C167     C      0.797970000000     0.555990000000     0.453150000000    -0.121176   
C168     C      0.705820000000     0.548930000000     0.427570000000    -0.0769022  
C169     C      0.754100000000     0.490200000000     0.484360000000    -0.0953155  
C170     C      0.713790000000     0.515890000000     0.438290000000     0.0310606  
C171     C      0.755760000000     0.521360000000     0.459220000000     0.0551957  
C172     C      0.663720000000     0.541640000000     0.411790000000     0.0677095  
C173     C      0.638950000000     0.470570000000     0.413650000000     0.0668651  
C174     C      0.680640000000     0.476720000000     0.429100000000    -0.0811604  
C175     C      0.127730000000     0.413180000000     0.481940000000     0.184974   
C176     C      0.171460000000     0.480760000000     0.455810000000     0.075612   
C177     C      0.166720000000     0.415160000000     0.500220000000    -0.120756   
C178     C      0.255400000000     0.418080000000     0.524440000000    -0.080317   
C179     C      0.210820000000     0.483070000000     0.473010000000    -0.0973423  
C180     C      0.250600000000     0.453180000000     0.515990000000     0.0285928  
C181     C      0.208830000000     0.450520000000     0.496430000000     0.0535243  
C182     C      0.296300000000     0.421580000000     0.539230000000     0.0701308  
C183     C      0.327820000000     0.493440000000     0.539400000000     0.0695719  
C184     C      0.286910000000     0.490960000000     0.525340000000    -0.0821018  
C185     C      0.955370000000     0.514970000000     0.789190000000     0.187124   
C186     C      0.981030000000     0.466220000000     0.790870000000     0.0794233  
C187     C      0.950010000000     0.515530000000     0.752210000000    -0.12114    
C188     C      0.965870000000     0.525290000000     0.672840000000    -0.0781794  
C189     C      0.975940000000     0.466380000000     0.754270000000    -0.0945649  
C190     C      0.952540000000     0.489490000000     0.695640000000     0.0298269  
C191     C      0.959740000000     0.490780000000     0.734520000000     0.0563098  
C192     C      0.963480000000     0.523070000000     0.636260000000     0.0703397  
C193     C      0.932520000000     0.450850000000     0.644690000000     0.0689585  
C194     C      0.934010000000     0.451920000000     0.681020000000    -0.0824488  
C195     C      0.041410000000     0.447360000000     0.155330000000     0.187651   
C196     C      0.016050000000     0.496480000000     0.152340000000     0.0796778  
C197     C      0.045430000000     0.446700000000     0.192320000000    -0.12137    
C198     C      0.020500000000     0.433950000000     0.269760000000    -0.0791476  
C199     C      0.019960000000     0.496330000000     0.188880000000    -0.0932569  
C200     C      0.037990000000     0.470870000000     0.248270000000     0.0304714  
C201     C      0.034810000000     0.471350000000     0.209310000000     0.0564972  
C202     C      0.016870000000     0.434290000000     0.305840000000     0.0711018  
C203     C      0.050440000000     0.506810000000     0.299810000000     0.070087   
C204     C      0.055000000000     0.507610000000     0.264000000000    -0.0818948  
C205     C      0.874030000000     0.284960000000     0.907520000000     0.186328   
C206     C      0.826790000000     0.314290000000     0.888070000000     0.080138   
C207     C      0.836500000000     0.245270000000     0.905660000000    -0.118919   
C208     C      0.745030000000     0.162110000000     0.899140000000    -0.0786     
C209     C      0.789630000000     0.275630000000     0.884560000000    -0.0938572  
C210     C      0.751110000000     0.200890000000     0.904540000000     0.0300296  
C211     C      0.793160000000     0.240400000000     0.896310000000     0.0535932  
C212     C      0.704680000000     0.126270000000     0.908640000000     0.0680918  
C213     C      0.677410000000     0.166580000000     0.928990000000     0.0700665  
C214     C      0.716520000000     0.202310000000     0.919900000000    -0.0817811  
C215     C      0.114740000000     0.670140000000     0.044780000000     0.184043   
C216     C      0.170640000000     0.649330000000     0.048430000000     0.0782977  
C217     C      0.148860000000     0.711350000000     0.046680000000    -0.118865   
C218     C      0.242570000000     0.798080000000     0.055160000000    -0.0794152  
C219     C      0.204810000000     0.689480000000     0.051280000000    -0.0962537  
C220     C      0.230450000000     0.763470000000     0.037070000000     0.0290802  
C221     C      0.194370000000     0.721400000000     0.047700000000     0.0533223  
C222     C      0.280980000000     0.835690000000     0.045550000000     0.0667046  
C223     C      0.292510000000     0.805400000000     0.999670000000     0.0695438  
C224     C      0.254890000000     0.768230000000     0.008200000000    -0.0829914  
C225     C      0.797250000000     0.430350000000     0.039900000000     0.192546   
C226     C      0.838690000000     0.499570000000     0.017190000000     0.0832966  
C227     C      0.756750000000     0.429630000000     0.026790000000    -0.120368   
C228     C      0.676720000000     0.423460000000     0.979960000000    -0.0784972  
C229     C      0.799370000000     0.499190000000     0.002420000000    -0.0932785  
C230     C      0.715330000000     0.461230000000     0.986550000000     0.0326182  
C231     C      0.757420000000     0.463400000000     0.005670000000     0.0564935  
C232     C      0.637510000000     0.422460000000     0.963170000000     0.0728803  
C233     C      0.674970000000     0.494800000000     0.955060000000     0.0721908  
C234     C      0.713670000000     0.497090000000     0.973260000000    -0.0793963  
C235     C      0.187640000000     0.546940000000     0.906660000000     0.183149   
C236     C      0.157320000000     0.474860000000     0.913730000000     0.0755621  
C237     C      0.227960000000     0.552280000000     0.925020000000    -0.120984   
C238     C      0.315410000000     0.554830000000     0.958760000000    -0.0799222  
C239     C      0.197310000000     0.479160000000     0.931170000000    -0.0937558  
C240     C      0.271620000000     0.521760000000     0.963110000000     0.030493   
C241     C      0.232020000000     0.518000000000     0.939500000000     0.056169   
C242     C      0.352310000000     0.553760000000     0.978230000000     0.0709407  
C243     C      0.303260000000     0.489880000000     0.007700000000     0.0704043  
C244     C      0.265830000000     0.490630000000     0.989830000000    -0.0819477  
C245     C      0.768290000000     0.814920000000     0.491700000000     0.191173   
C246     C      0.779640000000     0.833290000000     0.550770000000     0.0768788  
C247     C      0.729560000000     0.778430000000     0.500570000000    -0.125153   
C248     C      0.639270000000     0.710920000000     0.551290000000    -0.080924   
C249     C      0.741220000000     0.796210000000     0.560680000000    -0.0944807  
C250     C      0.684590000000     0.724310000000     0.545390000000     0.0284636  
C251     C      0.717070000000     0.767720000000     0.535570000000     0.0538433  
C252     C      0.607310000000     0.669060000000     0.549870000000     0.0662643  
C253     C      0.664990000000     0.654440000000     0.539180000000     0.0713413  
C254     C      0.697530000000     0.695180000000     0.541510000000    -0.0838541  
C255     C      0.197300000000     0.130070000000     0.474240000000     0.19147    
C256     C      0.200040000000     0.118250000000     0.415170000000     0.0737024  
C257     C      0.239430000000     0.164970000000     0.472270000000    -0.125253   
C258     C      0.333370000000     0.231780000000     0.469930000000    -0.0827656  
C259     C      0.242950000000     0.153320000000     0.412500000000    -0.0945436  
C260     C      0.305880000000     0.217930000000     0.439070000000     0.0270942  
C261     C      0.262720000000     0.177890000000     0.441080000000     0.0531709  
C262     C      0.364910000000     0.273030000000     0.471420000000     0.0706814  
C263     C      0.351000000000     0.286360000000     0.410360000000     0.0650358  
C264     C      0.316830000000     0.245280000000     0.408370000000    -0.0800647  
C265     C      0.777360000000     0.964050000000     0.393150000000     0.187295   
C266     C      0.760770000000     0.941870000000     0.453370000000     0.0771396  
C267     C      0.731710000000     0.952430000000     0.384470000000    -0.119141   
C268     C      0.645320000000     0.957490000000     0.380540000000    -0.0805435  
C269     C      0.715120000000     0.930120000000     0.445250000000    -0.0928351  
C270     C      0.652780000000     0.928130000000     0.402060000000     0.026147   
C271     C      0.700010000000     0.935560000000     0.410490000000     0.0533952  
C272     C      0.602570000000     0.954330000000     0.377150000000     0.0698172  
C273     C      0.572400000000     0.891330000000     0.412660000000     0.0649342  
C274     C      0.615300000000     0.893900000000     0.417220000000    -0.081677   
C275     C      0.194860000000     0.015890000000     0.549940000000     0.19226    
C276     C      0.206840000000     0.021580000000     0.488940000000     0.078198   
C277     C      0.241180000000     0.030550000000     0.558020000000    -0.11868    
C278     C      0.325320000000     0.022930000000     0.569390000000    -0.0799199  
C279     C      0.253150000000     0.035680000000     0.496570000000    -0.091885   
C280     C      0.317950000000     0.046930000000     0.541090000000     0.0291807  
C281     C      0.270830000000     0.039580000000     0.531570000000     0.0543961  
C282     C      0.366420000000     0.022960000000     0.574250000000     0.0741717  
C283     C      0.396370000000     0.074100000000     0.526910000000     0.0646512  
C284     C      0.354830000000     0.074240000000     0.520670000000    -0.0827669  
C285     C      0.988360000000     0.815250000000     0.403150000000     0.189542   
C286     C      0.061090000000     0.848160000000     0.432330000000     0.0741324  
C287     C      0.991730000000     0.779620000000     0.402550000000    -0.121709   
C288     C      0.028090000000     0.715990000000     0.397110000000    -0.0767632  
C289     C      0.064730000000     0.812360000000     0.433120000000    -0.0937884  
C290     C      0.027860000000     0.736730000000     0.425070000000     0.0296591  
C291     C      0.029120000000     0.777200000000     0.419030000000     0.0555035  
C292     C      0.022120000000     0.675960000000     0.403570000000     0.0724269  
C293     C      0.014080000000     0.676300000000     0.464300000000     0.077918   
C294     C      0.021300000000     0.716540000000     0.458970000000    -0.0736046  
C295     C      0.954050000000     0.276100000000     0.475360000000     0.187364   
C296     C      0.926970000000     0.272900000000     0.531100000000     0.0737627  
C297     C      0.946960000000     0.236040000000     0.482980000000    -0.121843   
C298     C      0.974670000000     0.177830000000     0.530700000000    -0.0807578  
C299     C      0.920090000000     0.232770000000     0.539300000000    -0.093408   
C300     C      0.932360000000     0.175450000000     0.524510000000     0.028143   
C301     C      0.930700000000     0.214260000000     0.515170000000     0.0533947  
C302     C      0.978990000000     0.142990000000     0.530000000000     0.0686418  
C303     C      0.899770000000     0.101900000000     0.521170000000     0.0669925  
C304     C      0.894240000000     0.136760000000     0.521050000000    -0.0795486  
C305     C      0.946920000000     0.927120000000     0.652880000000     0.185119   
C306     C      0.907200000000     0.964740000000     0.639680000000     0.0740121  
C307     C      0.941050000000     0.924790000000     0.688960000000    -0.122046   
C308     C      0.910480000000     0.910190000000     0.763430000000    -0.0800065  
C309     C      0.900980000000     0.962890000000     0.675730000000    -0.0939945  
C310     C      0.916770000000     0.944130000000     0.739800000000     0.0288627  
C311     C      0.918850000000     0.943450000000     0.700990000000     0.053086   
C312     C      0.915170000000     0.913350000000     0.799990000000     0.0681744  
C313     C      0.929540000000     0.982080000000     0.790600000000     0.0665322  
C314     C      0.925050000000     0.979950000000     0.753920000000    -0.081895   
C315     C      0.053420000000     0.972080000000     0.154320000000     0.185146   
C316     C      0.045560000000     0.031960000000     0.144280000000     0.0775722  
C317     C      0.054040000000     0.973350000000     0.190990000000    -0.12225    
C318     C      0.070280000000     0.993870000000     0.269140000000    -0.0812853  
C319     C      0.045620000000     0.033600000000     0.180670000000    -0.093929   
C320     C      0.042490000000     0.001510000000     0.242870000000     0.0307954  
C321     C      0.048500000000     0.003380000000     0.204480000000     0.0556055  
C322     C      0.062190000000     0.990600000000     0.305020000000     0.0698224  
C323     C      0.999420000000     0.001510000000     0.289280000000     0.0696359  
C324     C      0.007010000000     0.005610000000     0.253460000000    -0.0800158  
C325     C      0.682150000000     0.654950000000     0.034450000000     0.191953   
C326     C      0.624940000000     0.674160000000     0.024060000000     0.0772369  
C327     C      0.713380000000     0.692710000000     0.018860000000    -0.127676   
C328     C      0.761410000000     0.756930000000     0.960700000000    -0.0815803  
C329     C      0.655070000000     0.711930000000     0.007740000000    -0.0963793  
C330     C      0.730370000000     0.757640000000     0.981630000000     0.0272437  
C331     C      0.699040000000     0.720250000000     0.002760000000     0.0544953  
C332     C      0.795750000000     0.793680000000     0.946020000000     0.0677131  
C333     C      0.765620000000     0.830710000000     0.968400000000     0.0688932  
C334     C      0.731070000000     0.794810000000     0.983450000000    -0.0816083  
C335     C      0.299880000000     0.307320000000     0.928940000000     0.192841   
C336     C      0.357100000000     0.287930000000     0.935290000000     0.0809663  
C337     C      0.268110000000     0.267790000000     0.940520000000    -0.127926   
C338     C      0.218650000000     0.195900000000     0.992230000000    -0.0817131  
C339     C      0.326230000000     0.248170000000     0.947420000000    -0.0963809  
C340     C      0.249430000000     0.198600000000     0.969050000000     0.0286548  
C341     C      0.281890000000     0.238690000000     0.952320000000     0.056427   
C342     C      0.183290000000     0.157680000000     0.002970000000     0.0707025  
C343     C      0.211400000000     0.125060000000     0.971620000000     0.0698056  
C344     C      0.247070000000     0.162620000000     0.960420000000    -0.0816646  
C345     C      0.900000000000     0.065860000000     0.039400000000     0.17587    
C346     C      0.867220000000     0.000410000000     0.071520000000     0.0795081  
C347     C      0.857920000000     0.064790000000     0.036340000000    -0.126769   
C348     C      0.741700000000     0.010230000000     0.066220000000    -0.0800349  
C349     C      0.825460000000     0.999030000000     0.069540000000    -0.0993271  
C350     C      0.773670000000     0.024300000000     0.040610000000     0.0286778  
C351     C      0.819830000000     0.030270000000     0.049980000000     0.053905   
C352     C      0.697120000000     0.000820000000     0.056100000000     0.0706148  
C353     C      0.714980000000     0.018200000000     0.995870000000     0.0689305  
C354     C      0.759940000000     0.028590000000     0.005150000000    -0.0808578  
C355     C      0.078790000000     0.873780000000     0.918070000000     0.180754   
C356     C      0.108070000000     0.927840000000     0.872780000000     0.0800826  
C357     C      0.120420000000     0.873900000000     0.922610000000    -0.124297   
C358     C      0.219670000000     0.916440000000     0.949660000000    -0.0800186  
C359     C      0.149310000000     0.928080000000     0.876120000000    -0.0934424  
C360     C      0.204260000000     0.912370000000     0.914030000000     0.0285957  
C361     C      0.157090000000     0.903260000000     0.903220000000     0.0534279  
C362     C      0.265650000000     0.931540000000     0.959150000000     0.0688551  
C363     C      0.281410000000     0.937160000000     0.899170000000     0.0668563  
C364     C      0.235750000000     0.922460000000     0.888760000000    -0.0793189  
C365     C      0.933770000000     0.617960000000     0.018740000000     0.195495   
C366     C      0.936580000000     0.632260000000     0.956280000000     0.0795027  
C367     C      0.925280000000     0.650310000000     0.021100000000    -0.120492   
C368     C      0.945980000000     0.737680000000     0.021660000000    -0.0775982  
C369     C      0.928840000000     0.664990000000     0.958120000000    -0.0925454  
C370     C      0.922310000000     0.713050000000     0.993770000000     0.0362103  
C371     C      0.924280000000     0.675030000000     0.990910000000     0.0589241  
C372     C      0.950280000000     0.776570000000     0.020890000000     0.0803917  
C373     C      0.906190000000     0.766360000000     0.966730000000     0.080561   
C374     C      0.900480000000     0.727060000000     0.967010000000    -0.0805609  
C375     C      0.030100000000     0.177450000000     0.921950000000     0.19296    
C376     C      0.075620000000     0.185020000000     0.975350000000     0.087078   
C377     C      0.038170000000     0.217630000000     0.922170000000    -0.120086   
C378     C      0.062350000000     0.290650000000     0.987100000000    -0.078492   
C379     C      0.084690000000     0.225280000000     0.975740000000    -0.0940831  
C380     C      0.065400000000     0.280680000000     0.953710000000     0.0345999  
C381     C      0.064170000000     0.241400000000     0.949870000000     0.0611088  
C382     C      0.055860000000     0.323930000000     0.989930000000     0.0757964  
C383     C      0.057250000000     0.338840000000     0.927690000000     0.0809326  
C384     C      0.064560000000     0.306220000000     0.923940000000    -0.0778553  
H1       H      0.016410000000     0.982730000000     0.888600000000     0.206421   
H2       H      0.950400000000     0.043530000000     0.972960000000     0.209215   
H3       H      0.909200000000     0.883320000000     0.999510000000     0.197246   
H4       H      0.082280000000     0.999480000000     0.027370000000     0.199473   
H5       H      0.917900000000     0.056110000000     0.912930000000     0.150658   
H6       H      0.849400000000     0.989220000000     0.944950000000     0.205794   
H7       H      0.846400000000     0.905230000000     0.045590000000     0.135057   
H8       H      0.922440000000     0.876160000000     0.079270000000     0.194234   
H9       H      0.060640000000     0.896110000000     0.031420000000     0.15433    
H10      H      0.139180000000     0.977800000000     0.001590000000     0.201061   
H11      H      0.126020000000     0.048750000000     0.896090000000     0.135299   
H12      H      0.057010000000     0.077310000000     0.866230000000     0.195453   
H13      H      0.963410000000     0.864430000000     0.093160000000     0.219673   
H14      H      0.116740000000     0.941270000000     0.973220000000     0.208182   
H15      H      0.011910000000     0.079580000000     0.846220000000     0.218638   
H16      H      0.857180000000     0.007980000000     0.984100000000     0.206011   
H17      H      0.874130000000     0.918910000000     0.448690000000     0.212588   
H18      H      0.032450000000     0.044720000000     0.402440000000     0.191886   
H19      H      0.997750000000     0.029930000000     0.542010000000     0.194101   
H20      H      0.029200000000     0.915330000000     0.494780000000     0.19664    
H21      H      0.971210000000     0.058100000000     0.361740000000     0.136712   
H22      H      0.001440000000     0.113900000000     0.418380000000     0.212075   
H23      H      0.078660000000     0.112520000000     0.526990000000     0.143025   
H24      H      0.086230000000     0.045880000000     0.575870000000     0.211927   
H25      H      0.005410000000     0.890380000000     0.565620000000     0.147594   
H26      H      0.961020000000     0.831950000000     0.514580000000     0.204586   
H27      H      0.879520000000     0.852600000000     0.413390000000     0.149651   
H28      H      0.868660000000     0.909900000000     0.370950000000     0.207223   
H29      H      0.069270000000     0.006060000000     0.606540000000     0.229712   
H30      H      0.922520000000     0.833920000000     0.536840000000     0.211547   
H31      H      0.885120000000     0.949310000000     0.339880000000     0.221557   
H32      H      0.051340000000     0.121530000000     0.407130000000     0.197989   
H33      H      0.949490000000     0.431760000000     0.048800000000     0.207771   
H34      H      0.918360000000     0.442440000000     0.905450000000     0.196014   
H35      H      0.038460000000     0.581680000000     0.967880000000     0.205542   
H36      H      0.084530000000     0.462470000000     0.966090000000     0.20389    
H37      H      0.840390000000     0.441200000000     0.954170000000     0.141162   
H38      H      0.892000000000     0.537310000000     0.890700000000     0.218506   
H39      H      0.041210000000     0.597020000000     0.889330000000     0.141326   
H40      H      0.126980000000     0.621990000000     0.923370000000     0.207696   
H41      H      0.179240000000     0.563190000000     0.989410000000     0.144171   
H42      H      0.123010000000     0.471690000000     0.048230000000     0.209115   
H43      H      0.963940000000     0.349350000000     0.039590000000     0.145571   
H44      H      0.885020000000     0.348850000000     0.035640000000     0.205588   
H45      H      0.169130000000     0.622750000000     0.950930000000     0.210499   
H46      H      0.102670000000     0.420900000000     0.054490000000     0.217318   
H47      H      0.843380000000     0.331410000000     0.004070000000     0.218917   
H48      H      0.874800000000     0.487220000000     0.890930000000     0.199476   
H49      H      0.897900000000     0.454820000000     0.521150000000     0.19488    
H50      H      0.935810000000     0.453120000000     0.385710000000     0.198851   
H51      H      0.059540000000     0.574960000000     0.463950000000     0.199441   
H52      H      0.030090000000     0.418630000000     0.503360000000     0.217465   
H53      H      0.846100000000     0.437210000000     0.378510000000     0.15208    
H54      H      0.940820000000     0.553380000000     0.361950000000     0.217892   
H55      H      0.097570000000     0.585110000000     0.398730000000     0.131813   
H56      H      0.165710000000     0.567360000000     0.471870000000     0.195093   
H57      H      0.093820000000     0.483870000000     0.562010000000     0.143525   
H58      H      0.993450000000     0.405430000000     0.602000000000     0.208834   
H59      H      0.862140000000     0.364080000000     0.531750000000     0.134155   
H60      H      0.801540000000     0.385020000000     0.476970000000     0.202163   
H61      H      0.171160000000     0.540390000000     0.508620000000     0.203933   
H62      H      0.020220000000     0.396040000000     0.573180000000     0.208086   
H63      H      0.789560000000     0.409780000000     0.441480000000     0.217657   
H64      H      0.954070000000     0.526870000000     0.337900000000     0.207247   
H65      H      0.479990000000     0.932860000000     0.905670000000     0.202131   
H66      H      0.443820000000     0.912120000000     0.044890000000     0.195156   
H67      H      0.600110000000     0.043250000000     0.000690000000     0.200466   
H68      H      0.441890000000     0.041660000000     0.956490000000     0.201575   
H69      H      0.428000000000     0.838240000000     0.033430000000     0.137567   
H70      H      0.563240000000     0.917010000000     0.084950000000     0.218699   
H71      H      0.577640000000     0.042690000000     0.084720000000     0.144312   
H72      H      0.604260000000     0.107360000000     0.037350000000     0.200823   
H73      H      0.541700000000     0.121480000000     0.918810000000     0.145902   
H74      H      0.474510000000     0.074430000000     0.878310000000     0.215301   
H75      H      0.398750000000     0.923190000000     0.869270000000     0.132709   
H76      H      0.386530000000     0.855340000000     0.914390000000     0.201441   
H77      H      0.600350000000     0.144880000000     0.011210000000     0.217836   
H78      H      0.418250000000     0.049700000000     0.880070000000     0.20867    
H79      H      0.388460000000     0.818700000000     0.943220000000     0.215143   
H80      H      0.507970000000     0.889250000000     0.074470000000     0.212751   
H81      H      0.387990000000     0.952530000000     0.426940000000     0.197475   
H82      H      0.462840000000     0.967820000000     0.563380000000     0.208488   
H83      H      0.521910000000     0.908380000000     0.473280000000     0.198206   
H84      H      0.563280000000     0.068910000000     0.449260000000     0.198177   
H85      H      0.353320000000     0.905390000000     0.560900000000     0.135818   
H86      H      0.426150000000     0.876910000000     0.588020000000     0.191396   
H87      H      0.585490000000     0.938130000000     0.554060000000     0.143221   
H88      H      0.601670000000     0.936490000000     0.485520000000     0.194289   
H89      H      0.617050000000     0.049050000000     0.397110000000     0.135587   
H90      H      0.545220000000     0.080550000000     0.371380000000     0.192215   
H91      H      0.413100000000     0.059810000000     0.417740000000     0.141564   
H92      H      0.323810000000     0.967560000000     0.468270000000     0.202172   
H93      H      0.642490000000     0.973690000000     0.461330000000     0.208541   
H94      H      0.501140000000     0.088250000000     0.358640000000     0.204573   
H95      H      0.366680000000     0.014880000000     0.473010000000     0.202473   
H96      H      0.468400000000     0.866360000000     0.599850000000     0.205251   
H97      H      0.423780000000     0.459950000000     0.046950000000     0.203657   
H98      H      0.427960000000     0.449500000000     0.905550000000     0.193042   
H99      H      0.563560000000     0.581610000000     0.966500000000     0.19924    
H100     H      0.552440000000     0.431870000000     0.005840000000     0.206099   
H101     H      0.349240000000     0.444930000000     0.907360000000     0.148626   
H102     H      0.425120000000     0.550890000000     0.883640000000     0.210993   
H103     H      0.584350000000     0.587790000000     0.894150000000     0.131417   
H104     H      0.661720000000     0.588430000000     0.950360000000     0.196167   
H105     H      0.641600000000     0.513410000000     0.048030000000     0.158944   
H106     H      0.571850000000     0.440560000000     0.081550000000     0.215299   
H107     H      0.396370000000     0.374830000000     0.064150000000     0.130548   
H108     H      0.320770000000     0.375290000000     0.012130000000     0.198595   
H109     H      0.685450000000     0.574010000000     0.986010000000     0.215341   
H110     H      0.530050000000     0.397930000000     0.100340000000     0.219129   
H111     H      0.297780000000     0.398730000000     0.983890000000     0.214167   
H112     H      0.426450000000     0.517990000000     0.858660000000     0.201343   
H113     H      0.448250000000     0.433940000000     0.561380000000     0.20374    
H114     H      0.398310000000     0.432200000000     0.418450000000     0.195173   
H115     H      0.523500000000     0.578530000000     0.470850000000     0.195041   
H116     H      0.571300000000     0.460240000000     0.469750000000     0.203234   
H117     H      0.319190000000     0.385330000000     0.446690000000     0.131635   
H118     H      0.353700000000     0.498080000000     0.425700000000     0.210282   
H119     H      0.512400000000     0.593720000000     0.395900000000     0.131295   
H120     H      0.613530000000     0.614340000000     0.417770000000     0.197885   
H121     H      0.662730000000     0.558740000000     0.495580000000     0.143187   
H122     H      0.613380000000     0.445640000000     0.533680000000     0.203107   
H123     H      0.458050000000     0.358020000000     0.561970000000     0.134567   
H124     H      0.341860000000     0.343350000000     0.544800000000     0.199641   
H125     H      0.655770000000     0.617250000000     0.446380000000     0.201514   
H126     H      0.611830000000     0.468940000000     0.567680000000     0.208418   
H127     H      0.307660000000     0.340250000000     0.508940000000     0.200432   
H128     H      0.363880000000     0.489780000000     0.386430000000     0.202958   
H129     H      0.523720000000     0.420950000000     0.649300000000     0.0304107  
H130     H      0.470080000000     0.499090000000     0.808190000000     0.0169845  
H131     H      0.534730000000     0.536180000000     0.706660000000     0.0533706  
H132     H      0.478730000000     0.501690000000     0.746510000000     0.0566111  
H133     H      0.520770000000     0.414910000000     0.713080000000     0.0556331  
H134     H      0.552670000000     0.434940000000     0.770080000000     0.0809257  
H135     H      0.534140000000     0.539760000000     0.643270000000     0.0278518  
H136     H      0.448510000000     0.421960000000     0.314550000000     0.0285193  
H137     H      0.447050000000     0.532440000000     0.127110000000     0.0239266  
H138     H      0.464210000000     0.549540000000     0.248610000000     0.0542829  
H139     H      0.432580000000     0.527510000000     0.188980000000     0.0567185  
H140     H      0.455880000000     0.430870000000     0.251640000000     0.05646    
H141     H      0.521220000000     0.475980000000     0.217530000000     0.0839692  
H142     H      0.455190000000     0.539100000000     0.311980000000     0.0308127  
H143     H      0.423230000000     0.620550000000     0.436560000000     0.0303211  
H144     H      0.463500000000     0.794940000000     0.546830000000     0.0242331  
H145     H      0.416860000000     0.656600000000     0.554990000000     0.0505253  
H146     H      0.454780000000     0.727430000000     0.549580000000     0.0542282  
H147     H      0.412170000000     0.677940000000     0.440910000000     0.0561442  
H148     H      0.369210000000     0.704400000000     0.454020000000     0.0784473  
H149     H      0.431360000000     0.600840000000     0.549540000000     0.02931    
H150     H      0.536140000000     0.326130000000     0.524320000000     0.0301484  
H151     H      0.503330000000     0.156430000000     0.411870000000     0.0203746  
H152     H      0.550810000000     0.295350000000     0.405950000000     0.0539337  
H153     H      0.510790000000     0.223500000000     0.409940000000     0.0555544  
H154     H      0.546220000000     0.268250000000     0.519450000000     0.0570905  
H155     H      0.593340000000     0.245110000000     0.506970000000     0.0806004  
H156     H      0.537650000000     0.351860000000     0.411690000000     0.0305825  
H157     H      0.566010000000     0.064100000000     0.632040000000     0.0345829  
H158     H      0.581720000000     0.976620000000     0.829630000000     0.0288834  
H159     H      0.544470000000     0.943800000000     0.713440000000     0.05344    
H160     H      0.592920000000     0.977750000000     0.767590000000     0.057315   
H161     H      0.571030000000     0.068960000000     0.695140000000     0.0576182  
H162     H      0.513120000000     0.037920000000     0.738730000000     0.0826766  
H163     H      0.539840000000     0.939770000000     0.649990000000     0.0249598  
H164     H      0.439150000000     0.016120000000     0.306480000000     0.027899   
H165     H      0.402710000000     0.985790000000     0.125940000000     0.0299251  
H166     H      0.409420000000     0.888750000000     0.258700000000     0.0574293  
H167     H      0.389270000000     0.981760000000     0.187950000000     0.0576093  
H168     H      0.437520000000     0.014430000000     0.243060000000     0.0561406  
H169     H      0.470050000000     0.922480000000     0.215990000000     0.0826518  
H170     H      0.411110000000     0.891190000000     0.322140000000     0.0347659  
H171     H      0.523250000000     0.670100000000     0.002780000000     0.0298847  
H172     H      0.600470000000     0.879530000000     0.958080000000     0.0245159  
H173     H      0.531250000000     0.731300000000     0.879950000000     0.0543075  
H174     H      0.602900000000     0.815020000000     0.961500000000     0.0543638  
H175     H      0.539780000000     0.740930000000     0.991980000000     0.0534212  
H176     H      0.482040000000     0.764560000000     0.893420000000     0.080375   
H177     H      0.516980000000     0.660800000000     0.891480000000     0.0295999  
H178     H      0.459070000000     0.293850000000     0.958270000000     0.0328057  
H179     H      0.384460000000     0.084190000000     0.001840000000     0.0205705  
H180     H      0.452500000000     0.231290000000     0.080480000000     0.0553919  
H181     H      0.380920000000     0.148020000000     0.999830000000     0.0543043  
H182     H      0.444310000000     0.223510000000     0.968190000000     0.0542661  
H183     H      0.504960000000     0.200350000000     0.064030000000     0.0818804  
H184     H      0.464780000000     0.301370000000     0.069820000000     0.0282281  
H185     H      0.705370000000     0.093150000000     0.464310000000     0.0316468  
H186     H      0.888920000000     0.290480000000     0.429100000000     0.0459417  
H187     H      0.724200000000     0.220910000000     0.503310000000     0.0584964  
H188     H      0.837660000000     0.222990000000     0.455480000000     0.0592334  
H189     H      0.767040000000     0.157670000000     0.443100000000     0.0550223  
H190     H      0.729680000000     0.252660000000     0.437900000000     0.0817203  
H191     H      0.663040000000     0.155080000000     0.524930000000     0.0491718  
H192     H      0.299520000000     0.797300000000     0.429100000000     0.0470058  
H193     H      0.177250000000     0.620410000000     0.526940000000     0.0232705  
H194     H      0.208600000000     0.789380000000     0.524900000000     0.055641   
H195     H      0.231100000000     0.688160000000     0.505180000000     0.0571642  
H196     H      0.237090000000     0.730900000000     0.448500000000     0.0557902  
H197     H      0.137180000000     0.730590000000     0.517400000000     0.0775338  
H198     H      0.270250000000     0.853890000000     0.505290000000     0.0332357  
H199     H      0.658130000000     0.567710000000     0.405100000000     0.0190495  
H200     H      0.791320000000     0.464060000000     0.514570000000     0.0151097  
H201     H      0.686180000000     0.450520000000     0.434810000000     0.0523105  
H202     H      0.722230000000     0.463950000000     0.491620000000     0.0534041  
H203     H      0.730740000000     0.579920000000     0.433070000000     0.05194    
H204     H      0.800580000000     0.581290000000     0.434650000000     0.0808254  
H205     H      0.613470000000     0.439400000000     0.409000000000     0.0277391  
H206     H      0.298590000000     0.393630000000     0.544230000000     0.0229668  
H207     H      0.174820000000     0.507230000000     0.438500000000     0.0210909  
H208     H      0.284400000000     0.518820000000     0.520940000000     0.0494354  
H209     H      0.242600000000     0.510480000000     0.467840000000     0.0526705  
H210     H      0.228700000000     0.388060000000     0.518100000000     0.0542059  
H211     H      0.163480000000     0.389440000000     0.518400000000     0.0790174  
H212     H      0.355730000000     0.523510000000     0.544370000000     0.0289486  
H213     H      0.975960000000     0.551520000000     0.619470000000     0.0394578  
H214     H      0.993760000000     0.446530000000     0.804520000000     0.0316458  
H215     H      0.921710000000     0.423380000000     0.697650000000     0.053558   
H216     H      0.984900000000     0.447400000000     0.741500000000     0.0581241  
H217     H      0.980030000000     0.554970000000     0.683200000000     0.0606764  
H218     H      0.937130000000     0.534530000000     0.737370000000     0.0829016  
H219     H      0.918920000000     0.420960000000     0.634780000000     0.0267864  
H220     H      0.001130000000     0.405020000000     0.321390000000     0.0357593  
H221     H      0.004090000000     0.516530000000     0.138190000000     0.0378871  
H222     H      0.070220000000     0.536890000000     0.248440000000     0.0557449  
H223     H      0.010540000000     0.515380000000     0.201080000000     0.0616236  
H224     H      0.007310000000     0.404880000000     0.258510000000     0.0598489  
H225     H      0.057330000000     0.427280000000     0.207790000000     0.0824073  
H226     H      0.062760000000     0.536080000000     0.310550000000     0.0317299  
H227     H      0.701110000000     0.096890000000     0.904150000000     0.0295174  
H228     H      0.821560000000     0.340730000000     0.882060000000     0.0196181  
H229     H      0.719790000000     0.231130000000     0.925790000000     0.0547974  
H230     H      0.757280000000     0.273500000000     0.875600000000     0.0581836  
H231     H      0.771020000000     0.159450000000     0.887560000000     0.0557418  
H232     H      0.840680000000     0.218710000000     0.914430000000     0.0808082  
H233     H      0.652310000000     0.170400000000     0.940780000000     0.0259197  
H234     H      0.290930000000     0.861480000000     0.060900000000     0.0285804  
H235     H      0.180640000000     0.625970000000     0.048560000000     0.0180461  
H236     H      0.245670000000     0.742720000000     0.992660000000     0.0533555  
H237     H      0.239660000000     0.695930000000     0.052920000000     0.056167   
H238     H      0.223850000000     0.795680000000     0.077310000000     0.056128   
H239     H      0.139890000000     0.735550000000     0.044100000000     0.0814164  
H240     H      0.310440000000     0.806700000000     0.977330000000     0.0261866  
H241     H      0.607900000000     0.392780000000     0.960120000000     0.0327219  
H242     H      0.869980000000     0.527110000000     0.011270000000     0.0390682  
H243     H      0.741390000000     0.527380000000     0.977120000000     0.0515635  
H244     H      0.803330000000     0.526570000000     0.986680000000     0.0569779  
H245     H      0.676130000000     0.394550000000     0.987760000000     0.0567162  
H246     H      0.725250000000     0.402320000000     0.032760000000     0.0815204  
H247     H      0.676150000000     0.523350000000     0.944450000000     0.0209405  
H248     H      0.385910000000     0.578260000000     0.972310000000     0.0296647  
H249     H      0.130330000000     0.443870000000     0.910420000000     0.0265666  
H250     H      0.232580000000     0.465740000000     0.995920000000     0.0509976  
H251     H      0.200070000000     0.451770000000     0.939280000000     0.0572214  
H252     H      0.321720000000     0.580050000000     0.938970000000     0.0540417  
H253     H      0.255180000000     0.583010000000     0.928590000000     0.0747022  
H254     H      0.297430000000     0.463690000000     0.026350000000     0.0220978  
H255     H      0.572010000000     0.659800000000     0.552010000000     0.0260858  
H256     H      0.799530000000     0.853800000000     0.571100000000     0.0256451  
H257     H      0.732360000000     0.704420000000     0.537290000000     0.0580035  
H258     H      0.732340000000     0.788800000000     0.588040000000     0.0575439  
H259     H      0.628180000000     0.732830000000     0.554300000000     0.0523274  
H260     H      0.710400000000     0.757400000000     0.480440000000     0.0820239  
H261     H      0.676300000000     0.633300000000     0.533920000000     0.019081   
H262     H      0.382970000000     0.283010000000     0.496630000000     0.0245799  
H263     H      0.184790000000     0.101020000000     0.392110000000     0.0213278  
H264     H      0.297130000000     0.236040000000     0.383700000000     0.0501894  
H265     H      0.259920000000     0.161510000000     0.388050000000     0.0535952  
H266     H      0.328630000000     0.211500000000     0.493780000000     0.0540751  
H267     H      0.253140000000     0.182380000000     0.495270000000     0.0799254  
H268     H      0.356690000000     0.307420000000     0.386880000000     0.0225603  
H269     H      0.598850000000     0.978830000000     0.361580000000     0.0267908  
H270     H      0.770220000000     0.936630000000     0.480820000000     0.0307138  
H271     H      0.619390000000     0.870050000000     0.433520000000     0.0528863  
H272     H      0.692030000000     0.917930000000     0.466430000000     0.0523087  
H273     H      0.672930000000     0.984350000000     0.368100000000     0.0589648  
H274     H      0.721160000000     0.957420000000     0.357310000000     0.0820467  
H275     H      0.544800000000     0.865760000000     0.426400000000     0.0241079  
H276     H      0.369340000000     0.001460000000     0.594780000000     0.0292741  
H277     H      0.195300000000     0.019050000000     0.461270000000     0.0309346  
H278     H      0.350960000000     0.094010000000     0.498960000000     0.0503519  
H279     H      0.274570000000     0.041820000000     0.475130000000     0.0526311  
H280     H      0.298330000000     0.001460000000     0.586090000000     0.059765   
H281     H      0.253830000000     0.033540000000     0.585420000000     0.0829304  
H282     H      0.422900000000     0.093000000000     0.508890000000     0.0256032  
H283     H      0.022510000000     0.661040000000     0.381190000000     0.0319047  
H284     H      0.088240000000     0.873980000000     0.445220000000     0.0225699  
H285     H      0.019940000000     0.731220000000     0.481140000000     0.0621874  
H286     H      0.094360000000     0.811630000000     0.445960000000     0.0571527  
H287     H      0.032420000000     0.730470000000     0.370380000000     0.0577956  
H288     H      0.964220000000     0.753220000000     0.390640000000     0.0874449  
H289     H      0.007360000000     0.661660000000     0.490850000000     0.056031   
H290     H      0.012920000000     0.146920000000     0.533370000000     0.0316855  
H291     H      0.918600000000     0.285960000000     0.550950000000     0.0295088  
H292     H      0.860920000000     0.133890000000     0.516030000000     0.0529123  
H293     H      0.908030000000     0.216940000000     0.564820000000     0.0575971  
H294     H      0.004820000000     0.207150000000     0.533710000000     0.0618695  
H295     H      0.955970000000     0.222270000000     0.464160000000     0.0846824  
H296     H      0.870040000000     0.072860000000     0.516240000000     0.0291235  
H297     H      0.911270000000     0.886630000000     0.817100000000     0.0303519  
H298     H      0.894020000000     0.981300000000     0.621290000000     0.0251289  
H299     H      0.930260000000     0.007010000000     0.736810000000     0.0539104  
H300     H      0.882800000000     0.977140000000     0.683750000000     0.0552087  
H301     H      0.902980000000     0.881500000000     0.753760000000     0.056031   
H302     H      0.954690000000     0.908880000000     0.707640000000     0.0815414  
H303     H      0.937420000000     0.011000000000     0.800090000000     0.0299785  
H304     H      0.084430000000     0.984670000000     0.324470000000     0.0298878  
H305     H      0.041390000000     0.055270000000     0.127060000000     0.0314753  
H306     H      0.984320000000     0.010970000000     0.234080000000     0.0550411  
H307     H      0.042240000000     0.057930000000     0.190080000000     0.0581081  
H308     H      0.098200000000     0.990570000000     0.262040000000     0.0556472  
H309     H      0.057530000000     0.950130000000     0.208850000000     0.0821946  
H310     H      0.971150000000     0.004650000000     0.295820000000     0.026245   
H311     H      0.821290000000     0.792300000000     0.932490000000     0.0282342  
H312     H      0.590280000000     0.667510000000     0.024680000000     0.0279818  
H313     H      0.707190000000     0.796830000000     0.998520000000     0.0517786  
H314     H      0.642870000000     0.733010000000     0.997000000000     0.0546527  
H315     H      0.760610000000     0.728420000000     0.957190000000     0.051353   
H316     H      0.748340000000     0.699950000000     0.018560000000     0.0790608  
H317     H      0.766460000000     0.859200000000     0.972230000000     0.0303561  
H318     H      0.158420000000     0.156890000000     0.018970000000     0.0287849  
H319     H      0.391920000000     0.295080000000     0.934490000000     0.0292752  
H320     H      0.270740000000     0.163340000000     0.943190000000     0.0525955  
H321     H      0.337830000000     0.225980000000     0.955000000000     0.0552629  
H322     H      0.220630000000     0.223230000000     0.000670000000     0.0528187  
H323     H      0.233040000000     0.260120000000     0.940980000000     0.0807096  
H324     H      0.209520000000     0.097900000000     0.962820000000     0.0309498  
H325     H      0.673510000000     0.990010000000     0.076830000000     0.0295135  
H326     H      0.869340000000     0.974280000000     0.085330000000     0.023024   
H327     H      0.783510000000     0.038640000000     0.984500000000     0.0519411  
H328     H      0.796990000000     0.972100000000     0.081030000000     0.0605913  
H329     H      0.751040000000     0.006240000000     0.093920000000     0.0566306  
H330     H      0.854510000000     0.090000000000     0.022010000000     0.0816233  
H331     H      0.705950000000     0.021760000000     0.968010000000     0.0301949  
H332     H      0.275970000000     0.934680000000     0.987000000000     0.0307482  
H333     H      0.104980000000     0.950530000000     0.853790000000     0.0251481  
H334     H      0.225300000000     0.919750000000     0.860930000000     0.0556848  
H335     H      0.176270000000     0.950670000000     0.859900000000     0.0591094  
H336     H      0.196650000000     0.909690000000     0.970050000000     0.0524173  
H337     H      0.124950000000     0.852920000000     0.942700000000     0.0797407  
H338     H      0.304440000000     0.944920000000     0.878510000000     0.0333915  
H339     H      0.970670000000     0.795350000000     0.042120000000     0.0304159  
H340     H      0.941440000000     0.626860000000     0.930240000000     0.0298269  
H341     H      0.880450000000     0.708430000000     0.945630000000     0.0534508  
H342     H      0.928650000000     0.683440000000     0.933970000000     0.0625021  
H343     H      0.963500000000     0.728180000000     0.042940000000     0.0637806  
H344     H      0.919940000000     0.656360000000     0.046680000000     0.0853429  
H345     H      0.890150000000     0.776600000000     0.944730000000     0.0293564  
H346     H      0.052060000000     0.329590000000     0.016190000000     0.0301054  
H347     H      0.091500000000     0.173730000000     0.996690000000     0.0294379  
H348     H      0.068120000000     0.300380000000     0.897720000000     0.0594812  
H349     H      0.106440000000     0.243130000000     0.997000000000     0.0574862  
H350     H      0.062420000000     0.271630000000     0.010880000000     0.0592526  
H351     H      0.021740000000     0.229260000000     0.901680000000     0.0874088  
H352     H      0.055520000000     0.357120000000     0.903810000000     0.0359834  
N1       N      0.505650000000     0.465400000000     0.825310000000    -0.208636   
N2       N      0.527040000000     0.479950000000     0.641640000000    -0.193492   
N3       N      0.489550000000     0.504490000000     0.136710000000    -0.208465   
N4       N      0.453140000000     0.480570000000     0.318160000000    -0.193005   
N5       N      0.425970000000     0.791020000000     0.496840000000    -0.206778   
N6       N      0.429550000000     0.607330000000     0.492670000000    -0.193985   
N7       N      0.539590000000     0.159680000000     0.462410000000    -0.20783    
N8       N      0.535080000000     0.342610000000     0.468380000000    -0.194687   
N9       N      0.540170000000     0.005570000000     0.820240000000    -0.202532   
N10      N      0.551100000000     0.001160000000     0.636000000000    -0.186719   
N11      N      0.445040000000     0.957620000000     0.134900000000    -0.202511   
N12      N      0.426390000000     0.954110000000     0.319370000000    -0.188005   
N13      N      0.539010000000     0.858120000000     0.925750000000    -0.204575   
N14      N      0.519160000000     0.659790000000     0.948030000000    -0.186479   
N15      N      0.447600000000     0.106500000000     0.032020000000    -0.203566   
N16      N      0.462810000000     0.303260000000     0.013230000000    -0.186026   
N17      N      0.840290000000     0.311610000000     0.421560000000    -0.205552   
N18      N      0.677220000000     0.119790000000     0.493720000000    -0.189211   
N19      N      0.123790000000     0.634620000000     0.530670000000    -0.20597    
N20      N      0.292240000000     0.829620000000     0.467930000000    -0.189567   
N21      N      0.835100000000     0.521940000000     0.487990000000    -0.2078     
N22      N      0.629500000000     0.502400000000     0.407600000000    -0.196919   
N23      N      0.129980000000     0.446700000000     0.460710000000    -0.207735   
N24      N      0.333180000000     0.459230000000     0.544350000000    -0.194809   
N25      N      0.970640000000     0.489880000000     0.808730000000    -0.204207   
N26      N      0.948950000000     0.486270000000     0.622510000000    -0.19152    
N27      N      0.026360000000     0.472260000000     0.135160000000    -0.203761   
N28      N      0.029470000000     0.470340000000     0.320240000000    -0.19178    
N29      N      0.867930000000     0.318900000000     0.901300000000    -0.206289   
N30      N      0.671150000000     0.128540000000     0.923690000000    -0.188956   
N31      N      0.126170000000     0.639900000000     0.042790000000    -0.20433    
N32      N      0.306960000000     0.838540000000     0.019080000000    -0.19016    
N33      N      0.838170000000     0.464560000000     0.033060000000    -0.205411   
N34      N      0.636270000000     0.458050000000     0.952100000000    -0.194726   
N35      N      0.150920000000     0.508250000000     0.904710000000    -0.20981    
N36      N      0.346190000000     0.519840000000     0.000240000000    -0.193511   
N37      N      0.794660000000     0.840820000000     0.517280000000    -0.206974   
N38      N      0.619950000000     0.641930000000     0.541080000000    -0.192407   
N39      N      0.176440000000     0.108310000000     0.445050000000    -0.206597   
N40      N      0.371950000000     0.300450000000     0.442360000000    -0.191337   
N41      N      0.792100000000     0.958560000000     0.427760000000    -0.20007    
N42      N      0.567100000000     0.922860000000     0.394770000000    -0.195059   
N43      N      0.177240000000     0.011030000000     0.515190000000    -0.19804    
N44      N      0.400390000000     0.046030000000     0.551590000000    -0.1926     
N45      N      0.021920000000     0.848560000000     0.419730000000    -0.204318   
N46      N      0.014460000000     0.655880000000     0.436920000000    -0.181728   
N47      N      0.944590000000     0.295150000000     0.499710000000    -0.198865   
N48      N      0.942220000000     0.105730000000     0.523180000000    -0.189291   
N49      N      0.931770000000     0.948710000000     0.628300000000    -0.204746   
N50      N      0.926250000000     0.949520000000     0.813570000000    -0.18871    
N51      N      0.046930000000     0.000290000000     0.130880000000    -0.201594   
N52      N      0.026640000000     0.993930000000     0.315060000000    -0.190287   
N53      N      0.637140000000     0.644270000000     0.032980000000    -0.208352   
N54      N      0.799920000000     0.830380000000     0.952730000000    -0.192689   
N55      N      0.344900000000     0.318070000000     0.930020000000    -0.209604   
N56      N      0.177930000000     0.122870000000     0.990410000000    -0.193072   
N57      N      0.903360000000     0.031900000000     0.054400000000    -0.211924   
N58      N      0.683640000000     0.004370000000     0.021110000000    -0.188943   
N59      N      0.074870000000     0.904000000000     0.895970000000    -0.207148   
N60      N      0.296530000000     0.942380000000     0.934070000000    -0.189194   
N61      N      0.941160000000     0.609890000000     0.986300000000    -0.203974   
N62      N      0.932760000000     0.791650000000     0.992550000000    -0.189074   
N63      N      0.046850000000     0.160340000000     0.949770000000    -0.204066   
N64      N      0.051320000000     0.346740000000     0.960320000000    -0.189845   
O1       O      0.130810000000     0.059990000000     0.971890000000    -0.384163   
O2       O      0.106470000000     0.085000000000     0.010550000000    -0.37106    
O3       O      0.949550000000     0.989550000000     0.860190000000    -0.371052   
O4       O      0.934900000000     0.923290000000     0.869960000000    -0.374575   
O5       O      0.014420000000     0.097120000000     0.927980000000    -0.357844   
O6       O      0.041740000000     0.104630000000     0.984940000000    -0.361128   
O7       O      0.065600000000     0.957990000000     0.902570000000    -0.389247   
O8       O      0.007420000000     0.895420000000     0.914160000000    -0.336142   
O9       O      0.136030000000     0.032620000000     0.913580000000    -0.326143   
O10      O      0.118810000000     0.965370000000     0.981640000000    -0.530254   
O11      O      0.025430000000     0.069710000000     0.865870000000    -0.520743   
O12      O      0.918550000000     0.040140000000     0.894480000000    -0.338283   
O13      O      0.045760000000     0.041320000000     0.952030000000    -0.496502   
O14      O      0.009830000000     0.981010000000     0.912890000000    -0.635553   
O15      O      0.966020000000     0.854580000000     0.014620000000    -0.374432   
O16      O      0.934870000000     0.846590000000     0.958410000000    -0.361916   
O17      O      0.929710000000     0.988180000000     0.047370000000    -0.356917   
O18      O      0.976050000000     0.053970000000     0.038100000000    -0.343672   
O19      O      0.846950000000     0.894030000000     0.969180000000    -0.385728   
O20      O      0.872250000000     0.866410000000     0.933720000000    -0.364784   
O21      O      0.023850000000     0.960380000000     0.084160000000    -0.347382   
O22      O      0.042820000000     0.027520000000     0.074000000000    -0.367168   
O23      O      0.952030000000     0.879480000000     0.076790000000    -0.520367   
O24      O      0.060220000000     0.912690000000     0.049440000000    -0.335687   
O25      O      0.839050000000     0.922550000000     0.027310000000    -0.337941   
O26      O      0.862450000000     0.992230000000     0.968910000000    -0.539867   
O27      O      0.932190000000     0.910450000000     0.991730000000    -0.629665   
O28      O      0.968540000000     0.971000000000     0.030560000000    -0.468397   
O29      O      0.018070000000     0.928420000000     0.971780000000    -0.490171   
O30      O      0.960440000000     0.023730000000     0.971950000000    -0.632687   
O31      O      0.055750000000     0.991610000000     0.011460000000    -0.633462   
O32      O      0.922850000000     0.959760000000     0.932700000000    -0.496943   
O33      O      0.974270000000     0.867020000000     0.438810000000    -0.358637   
O34      O      0.046690000000     0.916060000000     0.429420000000    -0.367551   
O35      O      0.862730000000     0.973240000000     0.413070000000    -0.344442   
O36      O      0.848510000000     0.967480000000     0.470730000000    -0.363664   
O37      O      0.981400000000     0.989450000000     0.357230000000    -0.38094    
O38      O      0.045850000000     0.986430000000     0.374380000000    -0.368699   
O39      O      0.861290000000     0.862440000000     0.492830000000    -0.359958   
O40      O      0.851270000000     0.907100000000     0.521000000000    -0.360127   
O41      O      0.883240000000     0.838050000000     0.435920000000    -0.302267   
O42      O      0.940950000000     0.842800000000     0.516670000000    -0.534033   
O43      O      0.887460000000     0.938650000000     0.363960000000    -0.518082   
O44      O      0.941920000000     0.044520000000     0.373050000000    -0.329386   
O45      O      0.970390000000     0.939430000000     0.422320000000    -0.491548   
O46      O      0.905620000000     0.935920000000     0.455300000000    -0.637806   
O47      O      0.978140000000     0.955390000000     0.586100000000    -0.358597   
O48      O      0.917920000000     0.965300000000     0.569690000000    -0.369355   
O49      O      0.106080000000     0.086720000000     0.462350000000    -0.352619   
O50      O      0.116760000000     0.046910000000     0.428640000000    -0.360856   
O51      O      0.988470000000     0.086450000000     0.503040000000    -0.381195   
O52      O      0.917220000000     0.037410000000     0.515530000000    -0.362029   
O53      O      0.105350000000     0.993030000000     0.529500000000    -0.334961   
O54      O      0.117840000000     0.990570000000     0.473110000000    -0.359504   
O55      O      0.069100000000     0.016750000000     0.582160000000    -0.520139   
O56      O      0.035030000000     0.915120000000     0.569100000000    -0.324648   
O57      O      0.076780000000     0.122800000000     0.502000000000    -0.316704   
O58      O      0.026390000000     0.108180000000     0.422500000000    -0.53418    
O59      O      0.994220000000     0.015270000000     0.521820000000    -0.630561   
O60      O      0.058320000000     0.017980000000     0.488270000000    -0.486498   
O61      O      0.948070000000     0.929070000000     0.521350000000    -0.494642   
O62      O      0.017070000000     0.025530000000     0.422040000000    -0.627086   
O63      O      0.015160000000     0.932400000000     0.488730000000    -0.631579   
O64      O      0.949210000000     0.021830000000     0.455540000000    -0.492078   
O65      O      0.038940000000     0.385780000000     0.994340000000    -0.37795    
O66      O      0.028730000000     0.392240000000     0.934520000000    -0.360357   
O67      O      0.874120000000     0.428800000000     0.026960000000    -0.365194   
O68      O      0.915370000000     0.496060000000     0.034940000000    -0.345136   
O69      O      0.881300000000     0.367690000000     0.936770000000    -0.379664   
O70      O      0.939280000000     0.374380000000     0.907100000000    -0.348478   
O71      O      0.029410000000     0.451040000000     0.082090000000    -0.352244   
O72      O      0.006440000000     0.498040000000     0.082810000000    -0.378007   
O73      O      0.985710000000     0.368370000000     0.056770000000    -0.33006    
O74      O      0.098240000000     0.444160000000     0.046420000000    -0.522375   
O75      O      0.871660000000     0.353140000000     0.012940000000    -0.520972   
O76      O      0.836330000000     0.413220000000     0.954300000000    -0.341496   
O77      O      0.968770000000     0.406170000000     0.975770000000    -0.498932   
O78      O      0.963180000000     0.444300000000     0.026520000000    -0.637466   
O79      O      0.112620000000     0.590500000000     0.007520000000    -0.383108   
O80      O      0.055200000000     0.583180000000     0.038050000000    -0.34155    
O81      O      0.969760000000     0.511490000000     0.862140000000    -0.355239   
O82      O      0.986730000000     0.460610000000     0.860860000000    -0.375159   
O83      O      0.952350000000     0.570110000000     0.951850000000    -0.373607   
O84      O      0.969420000000     0.567990000000     0.010790000000    -0.338168   
O85      O      0.099130000000     0.530170000000     0.905540000000    -0.343089   
O86      O      0.074710000000     0.465490000000     0.897020000000    -0.360032   
O87      O      0.138300000000     0.608320000000     0.941420000000    -0.519494   
O88      O      0.156030000000     0.534800000000     0.984910000000    -0.364949   
O89      O      0.010280000000     0.592720000000     0.890650000000    -0.326475   
O90      O      0.897860000000     0.514490000000     0.896200000000    -0.522244   
O91      O      0.027490000000     0.552570000000     0.968190000000    -0.638769   
O92      O      0.031840000000     0.514200000000     0.918190000000    -0.475135   
O93      O      0.055210000000     0.505730000000     0.019060000000    -0.500143   
O94      O      0.940270000000     0.453340000000     0.924970000000    -0.634864   
O95      O      0.060030000000     0.467850000000     0.968510000000    -0.629911   
O96      O      0.935840000000     0.490350000000     0.975600000000    -0.503267   
O97      O      0.946340000000     0.352180000000     0.518760000000    -0.36304    
O98      O      0.966600000000     0.354740000000     0.463670000000    -0.334264   
O99      O      0.857010000000     0.478940000000     0.473220000000    -0.382359   
O100     O      0.909260000000     0.536690000000     0.498540000000    -0.347106   
O101     O      0.859940000000     0.376490000000     0.431580000000    -0.363573   
O102     O      0.913490000000     0.363300000000     0.416050000000    -0.35588    
O103     O      0.948550000000     0.450560000000     0.578640000000    -0.382403   
O104     O      0.964270000000     0.516820000000     0.565940000000    -0.367991   
O105     O      0.883770000000     0.369830000000     0.552610000000    -0.341721   
O106     O      0.998500000000     0.404100000000     0.577890000000    -0.529401   
O107     O      0.811450000000     0.405420000000     0.457070000000    -0.510885   
O108     O      0.864800000000     0.463820000000     0.388860000000    -0.352246   
O109     O      0.924580000000     0.406390000000     0.471750000000    -0.503499   
O110     O      0.921270000000     0.459940000000     0.505890000000    -0.629008   
O111     O      0.101650000000     0.569850000000     0.518200000000    -0.389731   
O112     O      0.048260000000     0.586570000000     0.526460000000    -0.345365   
O113     O      0.023070000000     0.504040000000     0.362830000000    -0.376142   
O114     O      0.003150000000     0.436600000000     0.374070000000    -0.373067   
O115     O      0.010470000000     0.598180000000     0.417670000000    -0.362411   
O116     O      0.995940000000     0.597900000000     0.474420000000    -0.3425     
O117     O      0.094410000000     0.484590000000     0.444120000000    -0.357703   
O118     O      0.053870000000     0.417660000000     0.442960000000    -0.334472   
O119     O      0.152170000000     0.545850000000     0.490520000000    -0.519897   
O120     O      0.096920000000     0.473010000000     0.540750000000    -0.361037   
O121     O      0.072810000000     0.586180000000     0.383210000000    -0.333673   
O122     O      0.957080000000     0.538820000000     0.359690000000    -0.527511   
O123     O      0.037590000000     0.546220000000     0.466270000000    -0.635768   
O124     O      0.040000000000     0.492400000000     0.432890000000    -0.468114   
O125     O      0.012710000000     0.490550000000     0.528710000000    -0.494267   
O126     O      0.948370000000     0.460810000000     0.409250000000    -0.630554   
O127     O      0.016470000000     0.435470000000     0.494400000000    -0.634857   
O128     O      0.944980000000     0.516490000000     0.444830000000    -0.491905   
O129     O      0.368900000000     0.964150000000     0.919500000000    -0.367037   
O130     O      0.354840000000     0.962780000000     0.976640000000    -0.363491   
O131     O      0.489550000000     0.874650000000     0.943530000000    -0.363519   
O132     O      0.561430000000     0.925480000000     0.934960000000    -0.357386   
O133     O      0.374540000000     0.867100000000     0.994420000000    -0.382311   
O134     O      0.359620000000     0.907030000000     0.024510000000    -0.357296   
O135     O      0.494520000000     0.000230000000     0.862650000000    -0.350678   
O136     O      0.557890000000     0.995410000000     0.879380000000    -0.370333   
O137     O      0.402780000000     0.951130000000     0.863070000000    -0.319731   
O138     O      0.446880000000     0.049990000000     0.884690000000    -0.528976   
O139     O      0.398080000000     0.847330000000     0.936450000000    -0.515024   
O140     O      0.453350000000     0.846630000000     0.018170000000    -0.350349   
O141     O      0.416760000000     0.940670000000     0.960210000000    -0.493498   
O142     O      0.482880000000     0.946970000000     0.926080000000    -0.634441   
O143     O      0.604530000000     0.100220000000     0.950330000000    -0.382927   
O144     O      0.624230000000     0.057930000000     0.928890000000    -0.356336   
O145     O      0.491670000000     0.964690000000     0.092500000000    -0.35287    
O146     O      0.427690000000     0.968560000000     0.075760000000    -0.36646    
O147     O      0.612870000000     0.987810000000     0.036160000000    -0.369991   
O148     O      0.627990000000     0.996370000000     0.978190000000    -0.368395   
O149     O      0.496600000000     0.089320000000     0.014030000000    -0.355855   
O150     O      0.424050000000     0.039270000000     0.021190000000    -0.364598   
O151     O      0.590820000000     0.116090000000     0.016840000000    -0.518733   
O152     O      0.525840000000     0.118640000000     0.940080000000    -0.350076   
O153     O      0.585760000000     0.020560000000     0.086490000000    -0.329702   
O154     O      0.535650000000     0.915120000000     0.073350000000    -0.520011   
O155     O      0.568750000000     0.025020000000     0.994520000000    -0.632967   
O156     O      0.502030000000     0.017740000000     0.028340000000    -0.494124   
O157     O      0.526250000000     0.032210000000     0.928900000000    -0.494678   
O158     O      0.458620000000     0.932360000000     0.025700000000    -0.629012   
O159     O      0.456770000000     0.025240000000     0.961990000000    -0.629307   
O160     O      0.527470000000     0.939400000000     0.992350000000    -0.491233   
O161     O      0.505280000000     0.097090000000     0.439000000000    -0.381154   
O162     O      0.538850000000     0.104000000000     0.494080000000    -0.353823   
O163     O      0.343540000000     0.891680000000     0.485570000000    -0.38892    
O164     O      0.362220000000     0.866300000000     0.443360000000    -0.353252   
O165     O      0.416850000000     0.994980000000     0.552660000000    -0.388735   
O166     O      0.469510000000     0.057280000000     0.534760000000    -0.339243   
O167     O      0.448420000000     0.992790000000     0.366860000000    -0.364642   
O168     O      0.426580000000     0.924810000000     0.376130000000    -0.364417   
O169     O      0.408030000000     0.036680000000     0.404600000000    -0.35626    
O170     O      0.514810000000     0.074760000000     0.374530000000    -0.520783   
O171     O      0.354810000000     0.985530000000     0.475790000000    -0.531782   
O172     O      0.342740000000     0.921480000000     0.543890000000    -0.329116   
O173     O      0.456600000000     0.023050000000     0.481330000000    -0.494773   
O174     O      0.415460000000     0.960280000000     0.441680000000    -0.629163   
O175     O      0.535820000000     0.963030000000     0.399330000000    -0.348737   
O176     O      0.493590000000     0.897160000000     0.410700000000    -0.348115   
O177     O      0.528670000000     0.961300000000     0.589020000000    -0.374331   
O178     O      0.542810000000     0.027510000000     0.579770000000    -0.372372   
O179     O      0.460340000000     0.853830000000     0.519710000000    -0.371218   
O180     O      0.430570000000     0.847380000000     0.463380000000    -0.352671   
O181     O      0.627410000000     0.057270000000     0.475700000000    -0.383684   
O182     O      0.605230000000     0.084200000000     0.514280000000    -0.352623   
O183     O      0.612630000000     0.961480000000     0.470090000000    -0.53642    
O184     O      0.627700000000     0.032830000000     0.413880000000    -0.340257   
O185     O      0.559080000000     0.911080000000     0.549750000000    -0.360659   
O186     O      0.455470000000     0.880520000000     0.584010000000    -0.521398   
O187     O      0.512130000000     0.928180000000     0.475150000000    -0.624726   
O188     O      0.553120000000     0.991490000000     0.514410000000    -0.502593   
O189     O      0.500510000000     0.980560000000     0.418500000000    -0.46108    
O190     O      0.468030000000     0.970240000000     0.538660000000    -0.634062   
O191     O      0.540610000000     0.041680000000     0.457180000000    -0.628944   
O192     O      0.428840000000     0.910140000000     0.499410000000    -0.491881   
O193     O      0.472990000000     0.362990000000     0.033370000000    -0.363752   
O194     O      0.477080000000     0.360000000000     0.974900000000    -0.356472   
O195     O      0.372260000000     0.474500000000     0.012630000000    -0.385341   
O196     O      0.422370000000     0.541310000000     0.008910000000    -0.358784   
O197     O      0.366260000000     0.379750000000     0.949050000000    -0.371381   
O198     O      0.418520000000     0.368570000000     0.927900000000    -0.369836   
O199     O      0.492740000000     0.469240000000     0.093960000000    -0.354221   
O200     O      0.484950000000     0.526050000000     0.078510000000    -0.381045   
O201     O      0.423670000000     0.383570000000     0.080410000000    -0.339376   
O202     O      0.540020000000     0.421370000000     0.083100000000    -0.523494   
O203     O      0.324020000000     0.396680000000     0.993840000000    -0.512907   
O204     O      0.356340000000     0.464270000000     0.925440000000    -0.34731    
O205     O      0.439540000000     0.410370000000     0.991330000000    -0.501646   
O206     O      0.441890000000     0.465300000000     0.027190000000    -0.62871    
O207     O      0.616330000000     0.581280000000     0.017320000000    -0.369933   
O208     O      0.563160000000     0.594450000000     0.033890000000    -0.367787   
O209     O      0.500930000000     0.499500000000     0.868180000000    -0.379299   
O210     O      0.498480000000     0.438000000000     0.882840000000    -0.354903   
O211     O      0.507420000000     0.599440000000     0.928320000000    -0.366924   
O212     O      0.505910000000     0.603660000000     0.986970000000    -0.35622    
O213     O      0.595020000000     0.491390000000     0.937970000000    -0.353565   
O214     O      0.559040000000     0.424110000000     0.941430000000    -0.353102   
O215     O      0.658820000000     0.570500000000     0.971570000000    -0.521973   
O216     O      0.630610000000     0.495010000000     0.028620000000    -0.365594   
O217     O      0.555790000000     0.583640000000     0.881140000000    -0.331485   
O218     O      0.437900000000     0.534150000000     0.878850000000    -0.526679   
O219     O      0.543070000000     0.552630000000     0.970450000000    -0.637266   
O220     O      0.540480000000     0.497730000000     0.935390000000    -0.463619   
O221     O      0.536090000000     0.503280000000     0.034330000000    -0.488626   
O222     O      0.445810000000     0.459780000000     0.927080000000    -0.627277   
O223     O      0.535800000000     0.446640000000     0.999560000000    -0.634214   
O224     O      0.446560000000     0.516290000000     0.962330000000    -0.492771   
O225     O      0.527220000000     0.384470000000     0.502190000000    -0.376481   
O226     O      0.511850000000     0.387300000000     0.442750000000    -0.374957   
O227     O      0.379680000000     0.431170000000     0.547670000000    -0.385975   
O228     O      0.410570000000     0.498560000000     0.549080000000    -0.352549   
O229     O      0.392880000000     0.352740000000     0.476650000000    -0.364201   
O230     O      0.420110000000     0.367240000000     0.422300000000    -0.367985   
O231     O      0.525880000000     0.454520000000     0.590010000000    -0.380128   
O232     O      0.507510000000     0.505180000000     0.589460000000    -0.384307   
O233     O      0.490530000000     0.373340000000     0.569360000000    -0.335565   
O234     O      0.596990000000     0.453430000000     0.547370000000    -0.52661    
O235     O      0.336760000000     0.354230000000     0.521470000000    -0.521281   
O236     O      0.330550000000     0.410120000000     0.459610000000    -0.357103   
O237     O      0.458950000000     0.404580000000     0.487860000000    -0.488516   
O238     O      0.457570000000     0.445270000000     0.537700000000    -0.624825   
O239     O      0.601680000000     0.590870000000     0.506440000000    -0.387981   
O240     O      0.548400000000     0.585730000000     0.540610000000    -0.36617    
O241     O      0.452710000000     0.504400000000     0.370320000000    -0.375763   
O242     O      0.463030000000     0.449120000000     0.370670000000    -0.380807   
O243     O      0.437830000000     0.565420000000     0.459160000000    -0.37563    
O244     O      0.457940000000     0.566210000000     0.517900000000    -0.369307   
O245     O      0.575700000000     0.522050000000     0.407150000000    -0.357571   
O246     O      0.553660000000     0.457480000000     0.401210000000    -0.35558    
O247     O      0.624530000000     0.602630000000     0.437820000000    -0.529499   
O248     O      0.641170000000     0.531760000000     0.486770000000    -0.362185   
O249     O      0.479170000000     0.582080000000     0.393970000000    -0.333807   
O250     O      0.374260000000     0.498090000000     0.410140000000    -0.527501   
O251     O      0.512980000000     0.549400000000     0.472650000000    -0.63184    
O252     O      0.512910000000     0.507810000000     0.423830000000    -0.475144   
O253     O      0.547340000000     0.507660000000     0.523500000000    -0.497648   
O254     O      0.421810000000     0.445240000000     0.436500000000    -0.62862    
O255     O      0.547240000000     0.465700000000     0.473470000000    -0.626582   
O256     O      0.423640000000     0.486490000000     0.486890000000    -0.492228   
Zr1      Zr     0.073740000000     0.994880000000     0.952510000000     1.38757    
Zr2      Zr     0.980410000000     0.025980000000     0.913960000000     1.39428    
Zr3      Zr     0.997390000000     0.925360000000     0.029690000000     1.38937    
Zr4      Zr     0.904630000000     0.957370000000     0.991430000000     1.37224    
Zr5      Zr     0.026030000000     0.037540000000     0.010940000000     1.38181    
Zr6      Zr     0.953080000000     0.914190000000     0.932990000000     1.3713     
Zr7      Zr     0.937400000000     0.892510000000     0.471850000000     1.39093    
Zr8      Zr     0.939020000000     0.983970000000     0.406940000000     1.38929    
Zr9      Zr     0.025720000000     0.970940000000     0.536990000000     1.3999     
Zr10     Zr     0.026900000000     0.061460000000     0.471740000000     1.39064    
Zr11     Zr     0.048580000000     0.980650000000     0.439150000000     1.35812    
Zr12     Zr     0.916130000000     0.973450000000     0.504940000000     1.36283    
Zr13     Zr     0.025350000000     0.433620000000     0.021910000000     1.39782    
Zr14     Zr     0.907870000000     0.418680000000     0.979260000000     1.3961     
Zr15     Zr     0.088260000000     0.539620000000     0.964890000000     1.37932    
Zr16     Zr     0.970200000000     0.525620000000     0.922650000000     1.39451    
Zr17     Zr     0.002370000000     0.441510000000     0.921690000000     1.38128    
Zr18     Zr     0.992660000000     0.516860000000     0.021730000000     1.39178    
Zr19     Zr     0.956350000000     0.420020000000     0.529490000000     1.38748    
Zr20     Zr     0.890830000000     0.446170000000     0.447040000000     1.39334    
Zr21     Zr     0.071110000000     0.505780000000     0.491550000000     1.37303    
Zr22     Zr     0.004170000000     0.531360000000     0.408780000000     1.3839     
Zr23     Zr     0.983930000000     0.421540000000     0.435430000000     1.38326    
Zr24     Zr     0.978200000000     0.530740000000     0.503180000000     1.37704    
Zr25     Zr     0.449260000000     0.989750000000     0.912340000000     1.38734    
Zr26     Zr     0.450400000000     0.898750000000     0.974770000000     1.39646    
Zr27     Zr     0.533900000000     0.066110000000     0.979500000000     1.39268    
Zr28     Zr     0.535850000000     0.975030000000     0.042110000000     1.38938    
Zr29     Zr     0.424430000000     0.975360000000     0.010900000000     1.35689    
Zr30     Zr     0.560470000000     0.989410000000     0.944040000000     1.36175    
Zr31     Zr     0.473060000000     0.026610000000     0.422100000000     1.3781     
Zr32     Zr     0.401950000000     0.956930000000     0.502050000000     1.38922    
Zr33     Zr     0.567130000000     0.994680000000     0.454270000000     1.36801    
Zr34     Zr     0.496480000000     0.925220000000     0.534610000000     1.3744     
Zr35     Zr     0.523700000000     0.037130000000     0.517250000000     1.37859    
Zr36     Zr     0.443870000000     0.913770000000     0.439040000000     1.37475    
Zr37     Zr     0.485460000000     0.431710000000     0.043780000000     1.38587    
Zr38     Zr     0.397680000000     0.445190000000     0.973300000000     1.38687    
Zr39     Zr     0.585020000000     0.518030000000     0.988880000000     1.37533    
Zr40     Zr     0.496960000000     0.531380000000     0.918140000000     1.38259    
Zr41     Zr     0.489460000000     0.425820000000     0.945920000000     1.38301    
Zr42     Zr     0.492440000000     0.537190000000     0.015300000000     1.37469    
Zr43     Zr     0.519790000000     0.435860000000     0.529870000000     1.38866    
Zr44     Zr     0.397390000000     0.414960000000     0.494020000000     1.36575    
Zr45     Zr     0.573790000000     0.537180000000     0.466670000000     1.37383    
Zr46     Zr     0.451070000000     0.517690000000     0.430920000000     1.38478    
Zr47     Zr     0.484750000000     0.435440000000     0.430750000000     1.37868    
Zr48     Zr     0.484860000000     0.517860000000     0.529280000000     1.38029    


