data_structure

_audit_creation_method RASPA-1.0
_audit_creation_date 2023-6-4
_audit_author_name 'Poobodin Mano'

_cell_length_a    33.9358
_cell_length_b    37.7188
_cell_length_c    38.0262
_cell_angle_alpha 82.7589
_cell_angle_beta  96.3262
_cell_angle_gamma 119.441
_cell_volume      41984.9

_symmetry_cell_setting          triclinic
_symmetry_space_group_name_Hall 'P 1'
_symmetry_space_group_name_H-M  'P 1'
_symmetry_Int_Tables_number     1

_symmetry_equiv_pos_as_xyz 'x,y,z'

loop_
_atom_site_label
_atom_site_type_symbol
_atom_site_fract_x
_atom_site_fract_y
_atom_site_fract_z
_atom_site_charge
C1       C      0.138450000000     0.088690000000     0.990580000000     0.400045   
C2       C      0.925980000000     0.946070000000     0.859510000000     0.401528   
C3       C      0.029180000000     0.115940000000     0.958320000000     0.402655   
C4       C      0.041030000000     0.914460000000     0.910550000000     0.407387   
C5       C      0.951480000000     0.833360000000     0.998980000000     0.411875   
C6       C      0.943650000000     0.027110000000     0.058230000000     0.379349   
C7       C      0.838260000000     0.860140000000     0.968930000000     0.396145   
C8       C      0.044490000000     0.000400000000     0.101370000000     0.410039   
C9       C      0.016200000000     0.874930000000     0.438970000000     0.403517   
C10      C      0.837280000000     0.960590000000     0.447240000000     0.402401   
C11      C      0.018300000000     0.983310000000     0.357960000000     0.391143   
C12      C      0.850840000000     0.869120000000     0.534880000000     0.407574   
C13      C      0.951510000000     0.962610000000     0.603230000000     0.393162   
C14      C      0.131560000000     0.077970000000     0.446190000000     0.393262   
C15      C      0.952730000000     0.073890000000     0.519350000000     0.406062   
C16      C      0.138000000000     0.999150000000     0.512160000000     0.395656   
C17      C      0.032220000000     0.372980000000     0.957770000000     0.40939    
C18      C      0.888700000000     0.465310000000     0.044620000000     0.397668   
C19      C      0.886820000000     0.353190000000     0.919710000000     0.394959   
C20      C      0.034130000000     0.479150000000     0.095660000000     0.398948   
C21      C      0.102980000000     0.606930000000     0.018280000000     0.393963   
C22      C      0.959540000000     0.481020000000     0.844910000000     0.417057   
C23      C      0.957060000000     0.582720000000     0.984080000000     0.402772   
C24      C      0.092960000000     0.495590000000     0.888100000000     0.377003   
C25      C      0.961900000000     0.336050000000     0.495460000000     0.388759   
C26      C      0.863990000000     0.498020000000     0.491480000000     0.39679    
C27      C      0.874650000000     0.346520000000     0.424230000000     0.403978   
C28      C      0.963890000000     0.485060000000     0.588960000000     0.401745   
C29      C      0.087160000000     0.593820000000     0.525380000000     0.408484   
C30      C      0.004610000000     0.463380000000     0.349410000000     0.4169     
C31      C      0.999650000000     0.610070000000     0.442850000000     0.381297   
C32      C      0.095350000000     0.455900000000     0.436230000000     0.380319   
C33      C      0.334930000000     0.942180000000     0.953740000000     0.391997   
C34      C      0.541790000000     0.883250000000     0.960670000000     0.403523   
C35      C      0.359410000000     0.868230000000     0.040370000000     0.406648   
C36      C      0.521830000000     0.982340000000     0.861300000000     0.395886   
C37      C      0.627900000000     0.085520000000     0.935730000000     0.402562   
C38      C      0.461230000000     0.973970000000     0.105690000000     0.394793   
C39      C      0.643490000000     0.999940000000     0.015300000000     0.400757   
C40      C      0.456820000000     0.071700000000     0.023160000000     0.397272   
C41      C      0.528840000000     0.116630000000     0.466630000000     0.419003   
C42      C      0.337550000000     0.861310000000     0.471760000000     0.402665   
C43      C      0.434930000000     0.033980000000     0.553600000000     0.406026   
C44      C      0.432470000000     0.951880000000     0.361670000000     0.40997    
C45      C      0.532080000000     0.923270000000     0.404910000000     0.375606   
C46      C      0.545990000000     0.998750000000     0.605220000000     0.397334   
C47      C      0.443150000000     0.831980000000     0.501900000000     0.40281    
C48      C      0.638980000000     0.083120000000     0.501960000000     0.412776   
C49      C      0.464810000000     0.336300000000     0.997310000000     0.388301   
C50      C      0.369560000000     0.502820000000     0.988170000000     0.410557   
C51      C      0.384990000000     0.352980000000     0.920880000000     0.417877   
C52      C      0.450160000000     0.477840000000     0.090520000000     0.396929   
C53      C      0.590840000000     0.594060000000     0.034010000000     0.406047   
C54      C      0.530890000000     0.473720000000     0.857850000000     0.397554   
C55      C      0.511120000000     0.613680000000     0.950110000000     0.388509   
C56      C      0.605330000000     0.455190000000     0.953010000000     0.392739   
C57      C      0.521280000000     0.369340000000     0.467770000000     0.401634   
C58      C      0.377960000000     0.470240000000     0.542720000000     0.414019   
C59      C      0.378250000000     0.348940000000     0.427140000000     0.409746   
C60      C      0.522360000000     0.481780000000     0.600490000000     0.407811   
C61      C      0.595130000000     0.605450000000     0.520670000000     0.395734   
C62      C      0.453320000000     0.475300000000     0.347910000000     0.413222   
C63      C      0.451260000000     0.584130000000     0.482400000000     0.411928   
C64      C      0.585440000000     0.489660000000     0.394240000000     0.393927   
C65      C      0.525800000000     0.509330000000     0.655440000000     0.23756    
C66      C      0.542380000000     0.454870000000     0.655340000000     0.0764597  
C67      C      0.532020000000     0.507580000000     0.692650000000    -0.159686   
C68      C      0.567810000000     0.513220000000     0.768030000000    -0.0801756  
C69      C      0.548880000000     0.452880000000     0.692300000000    -0.104602   
C70      C      0.548230000000     0.477250000000     0.750770000000     0.0206431  
C71      C      0.543570000000     0.479350000000     0.711380000000     0.0664611  
C72      C      0.563830000000     0.511310000000     0.804280000000     0.0651506  
C73      C      0.526720000000     0.438950000000     0.808000000000     0.0648185  
C74      C      0.529340000000     0.439740000000     0.771380000000    -0.0790242  
C75      C      0.432730000000     0.501470000000     0.291510000000     0.236979   
C76      C      0.455640000000     0.450750000000     0.294260000000     0.0810767  
C77      C      0.428350000000     0.501960000000     0.254080000000    -0.158494   
C78      C      0.450110000000     0.513650000000     0.175770000000    -0.0785135  
C79      C      0.451690000000     0.450950000000     0.257550000000    -0.104851   
C80      C      0.434520000000     0.477040000000     0.197650000000     0.0209653  
C81      C      0.437910000000     0.476650000000     0.236920000000     0.0669517  
C82      C      0.452620000000     0.513330000000     0.139300000000     0.065622   
C83      C      0.422350000000     0.441420000000     0.145730000000     0.064802   
C84      C      0.418610000000     0.440550000000     0.181850000000    -0.0803383  
C85      C      0.430360000000     0.635020000000     0.457460000000     0.235388   
C86      C      0.437280000000     0.621510000000     0.520090000000     0.0793461  
C87      C      0.422250000000     0.667020000000     0.463070000000    -0.16013    
C88      C      0.394550000000     0.726740000000     0.480240000000    -0.0818988  
C89      C      0.428470000000     0.652340000000     0.526150000000    -0.107171   
C90      C      0.420460000000     0.713560000000     0.503530000000     0.0212491  
C91      C      0.422330000000     0.676410000000     0.497580000000     0.0659036  
C92      C      0.400620000000     0.765760000000     0.481490000000     0.0689967  
C93      C      0.452760000000     0.777030000000     0.531320000000     0.0659083  
C94      C      0.448280000000     0.738420000000     0.530350000000    -0.080613   
C95      C      0.570690000000     0.185210000000     0.484350000000     0.242665   
C96      C      0.514960000000     0.168440000000     0.436250000000     0.081458   
C97      C      0.575010000000     0.224390000000     0.482540000000    -0.162566   
C98      C      0.538750000000     0.294110000000     0.429880000000    -0.0816748  
C99      C      0.518250000000     0.206770000000     0.434380000000    -0.108666   
C100     C      0.545830000000     0.272860000000     0.460580000000     0.0195672  
C101     C      0.547330000000     0.234700000000     0.458510000000     0.0681734  
C102     C      0.531290000000     0.326690000000     0.432760000000     0.065907   
C103     C      0.540730000000     0.319500000000     0.495550000000     0.0652453  
C104     C      0.547640000000     0.286390000000     0.493660000000    -0.0802272  
C105     C      0.558340000000     0.036140000000     0.656340000000     0.235222   
C106     C      0.556800000000     0.971890000000     0.663360000000     0.0756944  
C107     C      0.558170000000     0.035260000000     0.693590000000    -0.158909   
C108     C      0.511470000000     0.999310000000     0.764350000000    -0.0816189  
C109     C      0.557680000000     0.970970000000     0.700260000000    -0.106487   
C110     C      0.548890000000     0.997950000000     0.753940000000     0.0198466  
C111     C      0.556430000000     0.002010000000     0.715600000000     0.0680121  
C112     C      0.502780000000     0.993540000000     0.800220000000     0.0671541  
C113     C      0.568330000000     0.986580000000     0.816090000000     0.0673551  
C114     C      0.577370000000     0.991220000000     0.780180000000    -0.0778781  
C115     C      0.422810000000     0.916010000000     0.310180000000     0.236738   
C116     C      0.422710000000     0.979550000000     0.303780000000     0.0776792  
C117     C      0.423580000000     0.917630000000     0.272880000000    -0.158501   
C118     C      0.471360000000     0.956530000000     0.202600000000    -0.0807781  
C119     C      0.422380000000     0.981170000000     0.266900000000    -0.106392   
C120     C      0.432860000000     0.956050000000     0.212930000000     0.0212231  
C121     C      0.424650000000     0.950870000000     0.251210000000     0.0662091  
C122     C      0.480710000000     0.963520000000     0.166810000000     0.0674719  
C123     C      0.413910000000     0.968380000000     0.150840000000     0.0669602  
C124     C      0.404160000000     0.962510000000     0.186700000000    -0.0793145  
C125     C      0.559090000000     0.845890000000     0.923410000000     0.232185   
C126     C      0.553710000000     0.828840000000     0.985590000000     0.0819669  
C127     C      0.557140000000     0.807910000000     0.919390000000    -0.153172   
C128     C      0.557330000000     0.723840000000     0.921160000000    -0.077308   
C129     C      0.553580000000     0.792460000000     0.982510000000    -0.10333    
C130     C      0.539590000000     0.736050000000     0.946100000000     0.0195098  
C131     C      0.551690000000     0.779760000000     0.949030000000     0.0621325  
C132     C      0.546190000000     0.682360000000     0.921530000000     0.0602543  
C133     C      0.499600000000     0.665090000000     0.969610000000     0.0652972  
C134     C      0.509130000000     0.705420000000     0.969490000000    -0.0802701  
C135     C      0.487500000000     0.140350000000     0.039260000000     0.235146   
C136     C      0.410180000000     0.103460000000     0.018880000000     0.0737226  
C137     C      0.484350000000     0.176550000000     0.036500000000    -0.159742   
C138     C      0.433310000000     0.233300000000     0.041010000000    -0.0787563  
C139     C      0.406410000000     0.139290000000     0.015850000000    -0.1031     
C140     C      0.444380000000     0.216210000000     0.015690000000     0.0181451  
C141     C      0.444290000000     0.176520000000     0.023640000000     0.0639303  
C142     C      0.439720000000     0.273300000000     0.034350000000     0.0609028  
C143     C      0.467280000000     0.279360000000     0.978130000000     0.0633358  
C144     C      0.461190000000     0.239620000000     0.983920000000    -0.0802032  
C145     C      0.715480000000     0.116500000000     0.484420000000     0.240193   
C146     C      0.687620000000     0.153080000000     0.510800000000     0.0789987  
C147     C      0.751080000000     0.153420000000     0.470590000000    -0.16052    
C148     C      0.828030000000     0.238300000000     0.448180000000    -0.0789203  
C149     C      0.722860000000     0.190090000000     0.497740000000    -0.101986   
C150     C      0.783680000000     0.228590000000     0.454510000000     0.0221322  
C151     C      0.752890000000     0.190330000000     0.475040000000     0.0655461  
C152     C      0.857260000000     0.276950000000     0.432360000000     0.0683517  
C153     C      0.798500000000     0.294370000000     0.425950000000     0.067839   
C154     C      0.768270000000     0.256050000000     0.440780000000    -0.082928   
C155     C      0.110320000000     0.664840000000     0.527920000000     0.236538   
C156     C      0.164560000000     0.641760000000     0.532850000000     0.0806055  
C157     C      0.144440000000     0.704710000000     0.517660000000    -0.15959    
C158     C      0.228490000000     0.788150000000     0.507200000000    -0.0799324  
C159     C      0.198790000000     0.680680000000     0.523250000000    -0.108424   
C160     C      0.223210000000     0.751670000000     0.497250000000     0.0206093  
C161     C      0.188240000000     0.711940000000     0.512870000000     0.0660532  
C162     C      0.265150000000     0.824950000000     0.495860000000     0.065659   
C163     C      0.289370000000     0.790930000000     0.462370000000     0.0668019  
C164     C      0.252930000000     0.753380000000     0.473310000000    -0.0798642  
C165     C      0.637870000000     0.463620000000     0.398510000000     0.234468   
C166     C      0.664430000000     0.534100000000     0.402960000000     0.076086   
C167     C      0.679900000000     0.468330000000     0.413270000000    -0.160183   
C168     C      0.747430000000     0.474310000000     0.471900000000    -0.0821697  
C169     C      0.706120000000     0.539420000000     0.418230000000    -0.101359   
C170     C      0.752800000000     0.507870000000     0.448380000000     0.0218751  
C171     C      0.712960000000     0.505610000000     0.425910000000     0.0655647  
C172     C      0.785170000000     0.473300000000     0.489040000000     0.0666554  
C173     C      0.833390000000     0.540600000000     0.465040000000     0.065787   
C174     C      0.796120000000     0.542300000000     0.446550000000    -0.0792909  
C175     C      0.297040000000     0.435910000000     0.544110000000     0.242977   
C176     C      0.337480000000     0.505670000000     0.522760000000     0.0824357  
C177     C      0.256310000000     0.434050000000     0.528730000000    -0.15566    
C178     C      0.177990000000     0.425510000000     0.478120000000    -0.0771456  
C179     C      0.298230000000     0.504060000000     0.505810000000    -0.104511   
C180     C      0.215100000000     0.463780000000     0.485790000000     0.0225974  
C181     C      0.256860000000     0.467370000000     0.507090000000     0.0670109  
C182     C      0.138620000000     0.423040000000     0.459880000000     0.065914   
C183     C      0.173390000000     0.495050000000     0.452210000000     0.0659506  
C184     C      0.212140000000     0.498730000000     0.471740000000    -0.0792118  
C185     C      0.959850000000     0.518350000000     0.788630000000     0.237448   
C186     C      0.936410000000     0.447250000000     0.792390000000     0.0819482  
C187     C      0.957250000000     0.519470000000     0.751270000000    -0.159376   
C188     C      0.941240000000     0.511970000000     0.671110000000    -0.079491   
C189     C      0.932090000000     0.447420000000     0.755750000000    -0.106019   
C190     C      0.950180000000     0.485850000000     0.696270000000     0.0225112  
C191     C      0.945050000000     0.484160000000     0.734720000000     0.0670875  
C192     C      0.947170000000     0.512450000000     0.635140000000     0.0671387  
C193     C      0.970450000000     0.462170000000     0.648910000000     0.070128   
C194     C      0.965990000000     0.461630000000     0.684680000000    -0.0821781  
C195     C      0.028480000000     0.438930000000     0.304700000000     0.238733   
C196     C      0.002200000000     0.487240000000     0.289460000000     0.086043   
C197     C      0.038110000000     0.441880000000     0.268860000000    -0.158929   
C198     C      0.033510000000     0.439200000000     0.188300000000    -0.0784967  
C199     C      0.010180000000     0.489710000000     0.254150000000    -0.108456   
C200     C      0.039470000000     0.472400000000     0.205530000000     0.0210447  
C201     C      0.029590000000     0.467950000000     0.243430000000     0.0679819  
C202     C      0.035490000000     0.442900000000     0.151390000000     0.0639884  
C203     C      0.051000000000     0.511690000000     0.148710000000     0.0681819  
C204     C      0.051290000000     0.509650000000     0.185400000000    -0.080638   
C205     C      0.697610000000     0.121570000000     0.904080000000     0.234958   
C206     C      0.682040000000     0.152750000000     0.947250000000     0.0793414  
C207     C      0.737040000000     0.159570000000     0.895590000000    -0.155008   
C208     C      0.829780000000     0.245640000000     0.901440000000    -0.0778688  
C209     C      0.720440000000     0.189530000000     0.939970000000    -0.106665   
C210     C      0.784470000000     0.236290000000     0.903040000000     0.0204473  
C211     C      0.747440000000     0.194240000000     0.912810000000     0.0640173  
C212     C      0.864620000000     0.286540000000     0.902820000000     0.0642135  
C213     C      0.810260000000     0.308270000000     0.904760000000     0.066785   
C214     C      0.775120000000     0.268730000000     0.901630000000    -0.0814155  
C215     C      0.322140000000     0.800580000000     0.068230000000     0.238744   
C216     C      0.279960000000     0.834880000000     0.047520000000     0.0776547  
C217     C      0.281650000000     0.763300000000     0.071470000000    -0.161176   
C218     C      0.209970000000     0.702250000000     0.024280000000    -0.0832957  
C219     C      0.239120000000     0.797840000000     0.049750000000    -0.103897   
C220     C      0.202250000000     0.721530000000     0.049570000000     0.0212732  
C221     C      0.240200000000     0.761320000000     0.059730000000     0.0647802  
C222     C      0.176440000000     0.664350000000     0.014510000000     0.0663014  
C223     C      0.126580000000     0.663200000000     0.054200000000     0.0635092  
C224     C      0.159850000000     0.702020000000     0.064470000000    -0.0797055  
C225     C      0.640100000000     0.418980000000     0.987640000000     0.234928   
C226     C      0.684370000000     0.488130000000     0.965250000000     0.0781137  
C227     C      0.678830000000     0.420860000000     0.007280000000    -0.157138   
C228     C      0.766990000000     0.422870000000     0.031940000000    -0.0804476  
C229     C      0.723310000000     0.490130000000     0.983220000000    -0.10605    
C230     C      0.763090000000     0.458390000000     0.024220000000     0.0226247  
C231     C      0.721050000000     0.456640000000     0.005350000000     0.064505   
C232     C      0.808670000000     0.425620000000     0.043520000000     0.0698971  
C233     C      0.842920000000     0.497490000000     0.042860000000     0.0679562  
C234     C      0.801190000000     0.495780000000     0.032340000000    -0.0794261  
C235     C      0.340770000000     0.547740000000     0.963970000000     0.235741   
C236     C      0.292080000000     0.480910000000     0.989220000000     0.0817635  
C237     C      0.302700000000     0.549110000000     0.945790000000    -0.157168   
C238     C      0.213190000000     0.545890000000     0.915280000000    -0.0743433  
C239     C      0.254190000000     0.482000000000     0.972610000000    -0.106051   
C240     C      0.219380000000     0.511860000000     0.925360000000     0.0213423  
C241     C      0.259330000000     0.514840000000     0.948300000000     0.0658978  
C242     C      0.171810000000     0.540380000000     0.898860000000     0.0610389  
C243     C      0.144660000000     0.469440000000     0.898520000000     0.0601774  
C244     C      0.185680000000     0.473820000000     0.914330000000    -0.0783323  
C245     C      0.770760000000     0.835510000000     0.544210000000     0.235216   
C246     C      0.814760000000     0.802550000000     0.562980000000     0.0832797  
C247     C      0.730570000000     0.797280000000     0.548320000000    -0.15607    
C248     C      0.652480000000     0.703030000000     0.563160000000    -0.0790663  
C249     C      0.775980000000     0.765100000000     0.568190000000    -0.106065   
C250     C      0.695650000000     0.720710000000     0.549760000000     0.0222383  
C251     C      0.733470000000     0.761500000000     0.558100000000     0.0647412  
C252     C      0.618910000000     0.663800000000     0.553990000000     0.0648875  
C253     C      0.669980000000     0.660820000000     0.518230000000     0.068175   
C254     C      0.703810000000     0.699010000000     0.527050000000    -0.0834984  
C255     C      0.301410000000     0.298330000000     0.416970000000     0.240384   
C256     C      0.360770000000     0.283760000000     0.410250000000     0.077829   
C257     C      0.269670000000     0.256710000000     0.415940000000    -0.162018   
C258     C      0.232770000000     0.175440000000     0.457910000000    -0.0812178  
C259     C      0.329670000000     0.241770000000     0.409950000000    -0.103833   
C260     C      0.251640000000     0.184490000000     0.425000000000     0.0203119  
C261     C      0.283920000000     0.227900000000     0.414740000000     0.0656884  
C262     C      0.194460000000     0.138300000000     0.465290000000     0.0693176  
C263     C      0.196080000000     0.115730000000     0.410330000000     0.0625854  
C264     C      0.234470000000     0.153590000000     0.401570000000    -0.0793716  
C265     C      0.777420000000     0.951950000000     0.402370000000     0.234194   
C266     C      0.762980000000     0.940680000000     0.463740000000     0.0764541  
C267     C      0.731540000000     0.941070000000     0.393670000000    -0.157787   
C268     C      0.647690000000     0.951790000000     0.388440000000    -0.0803444  
C269     C      0.717350000000     0.929360000000     0.455580000000    -0.103422   
C270     C      0.654370000000     0.922810000000     0.411140000000     0.0182361  
C271     C      0.701220000000     0.929720000000     0.420240000000     0.0635501  
C272     C      0.605140000000     0.949290000000     0.384420000000     0.0663128  
C273     C      0.573890000000     0.887360000000     0.421330000000     0.0617589  
C274     C      0.616600000000     0.889490000000     0.426770000000    -0.081597   
C275     C      0.402250000000     0.077110000000     0.533010000000     0.228943   
C276     C      0.371850000000     0.025860000000     0.580640000000     0.0814309  
C277     C      0.360510000000     0.077660000000     0.527560000000    -0.160631   
C278     C      0.259030000000     0.035090000000     0.502890000000    -0.0781828  
C279     C      0.331070000000     0.026600000000     0.576460000000    -0.104127   
C280     C      0.276700000000     0.042520000000     0.537890000000     0.020916   
C281     C      0.323790000000     0.050450000000     0.548120000000     0.0635287  
C282     C      0.212650000000     0.020570000000     0.494700000000     0.0669162  
C283     C      0.201120000000     0.022350000000     0.554630000000     0.0661877  
C284     C      0.247180000000     0.036530000000     0.563740000000    -0.079813   
C285     C      0.062820000000     0.845240000000     0.428350000000     0.231429   
C286     C      0.982490000000     0.807630000000     0.421640000000     0.0749923  
C287     C      0.064690000000     0.808710000000     0.425730000000    -0.156156   
C288     C      0.029380000000     0.713230000000     0.400020000000    -0.0777724  
C289     C      0.983550000000     0.771750000000     0.418650000000    -0.107263   
C290     C      0.023650000000     0.731340000000     0.427630000000     0.019116   
C291     C      0.024610000000     0.771490000000     0.422160000000     0.0649536  
C292     C      0.021410000000     0.672610000000     0.405360000000     0.0609857  
C293     C      0.002590000000     0.668100000000     0.464480000000     0.0675328  
C294     C      0.010370000000     0.708290000000     0.460090000000    -0.0814862  
C295     C      0.981620000000     0.140420000000     0.538570000000     0.238917   
C296     C      0.904000000000     0.102780000000     0.519050000000     0.0772844  
C297     C      0.977780000000     0.176090000000     0.536990000000    -0.162952   
C298     C      0.950540000000     0.236210000000     0.482690000000    -0.0804114  
C299     C      0.899650000000     0.138250000000     0.516620000000    -0.103479   
C300     C      0.937520000000     0.215110000000     0.515960000000     0.0182382  
C301     C      0.937410000000     0.175600000000     0.524420000000     0.0662134  
C302     C      0.958400000000     0.276460000000     0.476300000000     0.0618156  
C303     C      0.939420000000     0.275080000000     0.534740000000     0.0612434  
C304     C      0.931800000000     0.234840000000     0.542140000000    -0.0790632  
C305     C      0.908180000000     0.969010000000     0.800780000000     0.235142   
C306     C      0.919140000000     0.910850000000     0.809460000000     0.0770981  
C307     C      0.907900000000     0.968590000000     0.763620000000    -0.157548   
C308     C      0.895160000000     0.952150000000     0.684530000000    -0.0784199  
C309     C      0.919440000000     0.910190000000     0.772780000000    -0.102402   
C310     C      0.922640000000     0.943810000000     0.710800000000     0.0210609  
C311     C      0.915400000000     0.940150000000     0.749410000000     0.0645011  
C312     C      0.904750000000     0.957840000000     0.648600000000     0.0649834  
C313     C      0.968290000000     0.947820000000     0.664150000000     0.0644155  
C314     C      0.959280000000     0.941370000000     0.700050000000    -0.0805412  
C315     C      0.054470000000     0.037540000000     0.152160000000     0.236482   
C316     C      0.053870000000     0.973710000000     0.159880000000     0.0775847  
C317     C      0.054140000000     0.036940000000     0.189440000000    -0.157767   
C318     C      0.009790000000     0.003580000000     0.261140000000    -0.0756236  
C319     C      0.054530000000     0.973030000000     0.196730000000    -0.105879   
C320     C      0.045790000000     0.000220000000     0.250370000000     0.0198293  
C321     C      0.052940000000     0.004050000000     0.211850000000     0.0669861  
C322     C      0.000960000000     0.997360000000     0.297040000000     0.0617938  
C323     C      0.063650000000     0.985980000000     0.312430000000     0.0636546  
C324     C      0.072770000000     0.991070000000     0.276450000000    -0.0795945  
C325     C      0.667940000000     0.644720000000     0.043130000000     0.237852   
C326     C      0.611270000000     0.664200000000     0.026160000000     0.0755162  
C327     C      0.701480000000     0.683700000000     0.030810000000    -0.162806   
C328     C      0.755950000000     0.751400000000     0.975810000000    -0.0797057  
C329     C      0.643990000000     0.703220000000     0.013770000000    -0.10417    
C330     C      0.724050000000     0.751070000000     0.996640000000     0.0206542  
C331     C      0.689240000000     0.712240000000     0.013890000000     0.0649437  
C332     C      0.792140000000     0.788540000000     0.963600000000     0.0648984  
C333     C      0.764010000000     0.824670000000     0.990080000000     0.0668758  
C334     C      0.727180000000     0.788240000000     0.002210000000    -0.0799951  
C335     C      0.307600000000     0.302220000000     0.915300000000     0.240407   
C336     C      0.364740000000     0.282940000000     0.930180000000     0.0808548  
C337     C      0.274760000000     0.263660000000     0.928910000000    -0.163517   
C338     C      0.222250000000     0.196910000000     0.984800000000    -0.0792549  
C339     C      0.332700000000     0.244290000000     0.943950000000    -0.104552   
C340     C      0.253530000000     0.196920000000     0.963480000000     0.0209715  
C341     C      0.287690000000     0.235470000000     0.945470000000     0.0672956  
C342     C      0.185710000000     0.159950000000     0.996830000000     0.0669558  
C343     C      0.212650000000     0.123420000000     0.969520000000     0.0672647  
C344     C      0.249740000000     0.159630000000     0.957500000000    -0.0797252  
C345     C      0.719280000000     0.022340000000     0.998050000000     0.234808   
C346     C      0.702360000000     0.007460000000     0.059020000000     0.0786603  
C347     C      0.764450000000     0.031460000000     0.007880000000    -0.158162   
C348     C      0.828760000000     0.001720000000     0.074690000000    -0.0798488  
C349     C      0.746720000000     0.015860000000     0.069170000000    -0.104519   
C350     C      0.824160000000     0.032570000000     0.053260000000     0.018343   
C351     C      0.778260000000     0.027760000000     0.043500000000     0.0643443  
C352     C      0.870370000000     0.002250000000     0.078310000000     0.0664183  
C353     C      0.904580000000     0.065610000000     0.043600000000     0.0603933  
C354     C      0.863000000000     0.065600000000     0.038680000000    -0.0820043  
C355     C      0.103350000000     0.920360000000     0.882740000000     0.237731   
C356     C      0.072920000000     0.871910000000     0.932230000000     0.0738415  
C357     C      0.143700000000     0.918000000000     0.888040000000    -0.161646   
C358     C      0.225370000000     0.904690000000     0.902700000000    -0.0793399  
C359     C      0.113300000000     0.869890000000     0.938690000000    -0.106915   
C360     C      0.196630000000     0.901320000000     0.928170000000     0.0194099  
C361     C      0.150130000000     0.894910000000     0.917580000000     0.0624839  
C362     C      0.271200000000     0.917680000000     0.911860000000     0.0618684  
C363     C      0.260870000000     0.922940000000     0.971200000000     0.0633509  
C364     C      0.214730000000     0.909740000000     0.962960000000    -0.0802513  
C365     C      0.966000000000     0.780220000000     0.028560000000     0.236543   
C366     C      0.909930000000     0.766230000000     0.980920000000     0.0803703  
C367     C      0.960550000000     0.740800000000     0.028130000000    -0.161404   
C368     C      0.937720000000     0.653260000000     0.027720000000    -0.0824363  
C369     C      0.903490000000     0.727000000000     0.980510000000    -0.107419   
C370     C      0.930350000000     0.676160000000     0.998490000000     0.0207741  
C371     C      0.930360000000     0.714530000000     0.003140000000     0.0660322  
C372     C      0.945350000000     0.621390000000     0.022390000000     0.0667354  
C373     C      0.934320000000     0.631700000000     0.960050000000     0.0658997  
C374     C      0.927370000000     0.664300000000     0.964380000000    -0.0807408  
C375     C      0.045240000000     0.332130000000     0.921450000000     0.235576   
C376     C      0.048450000000     0.321170000000     0.984540000000     0.0771925  
C377     C      0.051410000000     0.298210000000     0.919150000000    -0.16065    
C378     C      0.027010000000     0.209390000000     0.922290000000    -0.0825326  
C379     C      0.054110000000     0.287450000000     0.982800000000    -0.105523   
C380     C      0.054720000000     0.236110000000     0.947910000000     0.0215484  
C381     C      0.054630000000     0.275020000000     0.949870000000     0.0650949  
C382     C      0.021020000000     0.169880000000     0.924800000000     0.0680663  
C383     C      0.071120000000     0.183500000000     0.976120000000     0.0683791  
C384     C      0.078640000000     0.223390000000     0.973960000000    -0.0826304  
H1       H      0.006850000000     0.977790000000     0.894720000000     0.207929   
H2       H      0.947100000000     0.039390000000     0.983530000000     0.190629   
H3       H      0.913530000000     0.882020000000     0.013560000000     0.195746   
H4       H      0.087850000000     0.003330000000     0.029060000000     0.194843   
H5       H      0.913270000000     0.055980000000     0.918140000000     0.131373   
H6       H      0.866360000000     0.008700000000     0.974450000000     0.193989   
H7       H      0.861040000000     0.902510000000     0.066670000000     0.132871   
H8       H      0.981330000000     0.869600000000     0.103060000000     0.207689   
H9       H      0.072810000000     0.905020000000     0.035750000000     0.151053   
H10      H      0.138040000000     0.977820000000     0.001260000000     0.195289   
H11      H      0.108060000000     0.046770000000     0.891870000000     0.132689   
H12      H      0.992050000000     0.074860000000     0.854560000000     0.205201   
H13      H      0.935670000000     0.875300000000     0.090980000000     0.188286   
H14      H      0.129720000000     0.954770000000     0.964240000000     0.204157   
H15      H      0.036770000000     0.067450000000     0.865520000000     0.189929   
H16      H      0.826360000000     0.970440000000     0.998640000000     0.208289   
H17      H      0.876640000000     0.911370000000     0.463030000000     0.200243   
H18      H      0.031010000000     0.037400000000     0.407800000000     0.193544   
H19      H      0.002700000000     0.032100000000     0.547930000000     0.198482   
H20      H      0.038100000000     0.917300000000     0.506460000000     0.199045   
H21      H      0.964900000000     0.046740000000     0.369040000000     0.134181   
H22      H      0.996370000000     0.103900000000     0.419590000000     0.201822   
H23      H      0.088990000000     0.116520000000     0.523880000000     0.136592   
H24      H      0.089900000000     0.052010000000     0.582750000000     0.188218   
H25      H      0.009850000000     0.898990000000     0.586620000000     0.141355   
H26      H      0.979910000000     0.835810000000     0.524370000000     0.198355   
H27      H      0.877390000000     0.848550000000     0.433140000000     0.128574   
H28      H      0.892650000000     0.899130000000     0.375910000000     0.195043   
H29      H      0.091210000000     0.014360000000     0.610450000000     0.202893   
H30      H      0.941590000000     0.833040000000     0.550320000000     0.200219   
H31      H      0.864120000000     0.924790000000     0.363600000000     0.212378   
H32      H      0.047420000000     0.113940000000     0.408360000000     0.192739   
H33      H      0.959860000000     0.436050000000     0.050830000000     0.202752   
H34      H      0.908700000000     0.439720000000     0.909400000000     0.199844   
H35      H      0.037860000000     0.581430000000     0.962680000000     0.199379   
H36      H      0.080220000000     0.460140000000     0.956750000000     0.202348   
H37      H      0.812920000000     0.391660000000     0.972220000000     0.139351   
H38      H      0.864170000000     0.495630000000     0.916930000000     0.207672   
H39      H      0.031270000000     0.594570000000     0.885810000000     0.136797   
H40      H      0.129880000000     0.615310000000     0.907770000000     0.194021   
H41      H      0.173060000000     0.556300000000     0.986890000000     0.139914   
H42      H      0.123220000000     0.445070000000     0.020310000000     0.201534   
H43      H      0.966430000000     0.364360000000     0.057290000000     0.126582   
H44      H      0.882480000000     0.338070000000     0.023790000000     0.192295   
H45      H      0.171250000000     0.614750000000     0.935800000000     0.194458   
H46      H      0.121410000000     0.465450000000     0.056320000000     0.205931   
H47      H      0.836780000000     0.344260000000     0.022790000000     0.194889   
H48      H      0.883710000000     0.519280000000     0.877340000000     0.209316   
H49      H      0.905110000000     0.447590000000     0.529220000000     0.202291   
H50      H      0.927820000000     0.443960000000     0.389070000000     0.189434   
H51      H      0.053790000000     0.573170000000     0.459690000000     0.199838   
H52      H      0.042030000000     0.423600000000     0.499010000000     0.204888   
H53      H      0.842270000000     0.434200000000     0.386070000000     0.130802   
H54      H      0.926940000000     0.547590000000     0.366260000000     0.208016   
H55      H      0.085420000000     0.581340000000     0.390220000000     0.130298   
H56      H      0.158050000000     0.582020000000     0.454840000000     0.190844   
H57      H      0.114100000000     0.493680000000     0.550010000000     0.137158   
H58      H      0.028850000000     0.390670000000     0.572550000000     0.200281   
H59      H      0.878720000000     0.362250000000     0.547080000000     0.131503   
H60      H      0.799950000000     0.370710000000     0.480990000000     0.19458    
H61      H      0.175490000000     0.564410000000     0.492500000000     0.199358   
H62      H      0.038400000000     0.432140000000     0.591410000000     0.20052    
H63      H      0.786910000000     0.394600000000     0.445300000000     0.196594   
H64      H      0.931890000000     0.516390000000     0.341580000000     0.198957   
H65      H      0.477570000000     0.913800000000     0.921680000000     0.196889   
H66      H      0.454430000000     0.919230000000     0.060110000000     0.200163   
H67      H      0.598390000000     0.045600000000     0.998610000000     0.199588   
H68      H      0.428960000000     0.024460000000     0.954340000000     0.202731   
H69      H      0.469900000000     0.852660000000     0.059680000000     0.131369   
H70      H      0.549040000000     0.913080000000     0.084680000000     0.192427   
H71      H      0.592360000000     0.068650000000     0.064150000000     0.134001   
H72      H      0.590270000000     0.139970000000     0.001360000000     0.200148   
H73      H      0.514250000000     0.095250000000     0.903880000000     0.140958   
H74      H      0.396670000000     0.016000000000     0.881880000000     0.200024   
H75      H      0.377440000000     0.886340000000     0.899490000000     0.137622   
H76      H      0.420760000000     0.832920000000     0.938490000000     0.196538   
H77      H      0.565330000000     0.151080000000     0.964460000000     0.201944   
H78      H      0.443920000000     0.030450000000     0.861160000000     0.203246   
H79      H      0.375240000000     0.830520000000     0.954180000000     0.199109   
H80      H      0.564520000000     0.946330000000     0.115420000000     0.202955   
H81      H      0.389410000000     0.948750000000     0.432910000000     0.195498   
H82      H      0.466460000000     0.968810000000     0.568800000000     0.207144   
H83      H      0.526340000000     0.907920000000     0.479910000000     0.19775    
H84      H      0.565370000000     0.067070000000     0.452760000000     0.196278   
H85      H      0.358200000000     0.904760000000     0.568340000000     0.132566   
H86      H      0.430050000000     0.877890000000     0.594150000000     0.188248   
H87      H      0.591340000000     0.940590000000     0.559060000000     0.143958   
H88      H      0.606930000000     0.937260000000     0.490770000000     0.193395   
H89      H      0.617480000000     0.047190000000     0.400310000000     0.131556   
H90      H      0.545620000000     0.075140000000     0.374730000000     0.188199   
H91      H      0.409350000000     0.050470000000     0.427030000000     0.145921   
H92      H      0.330350000000     0.965980000000     0.465070000000     0.197355   
H93      H      0.647380000000     0.974700000000     0.466320000000     0.212806   
H94      H      0.500990000000     0.082020000000     0.361350000000     0.202367   
H95      H      0.361290000000     0.008630000000     0.485940000000     0.203792   
H96      H      0.473800000000     0.869790000000     0.607890000000     0.202707   
H97      H      0.402580000000     0.448840000000     0.024480000000     0.200394   
H98      H      0.447880000000     0.454380000000     0.888850000000     0.192078   
H99      H      0.564620000000     0.574520000000     0.970730000000     0.199968   
H100     H      0.540750000000     0.420360000000     0.008400000000     0.21226    
H101     H      0.364130000000     0.446230000000     0.877450000000     0.137076   
H102     H      0.453800000000     0.558570000000     0.866200000000     0.210576   
H103     H      0.607600000000     0.587760000000     0.906640000000     0.130199   
H104     H      0.674010000000     0.571610000000     0.981710000000     0.195273   
H105     H      0.603990000000     0.487630000000     0.068980000000     0.143255   
H106     H      0.520560000000     0.388050000000     0.080150000000     0.20185    
H107     H      0.370560000000     0.359490000000     0.036810000000     0.132108   
H108     H      0.303730000000     0.380440000000     0.965750000000     0.198412   
H109     H      0.678910000000     0.544400000000     0.018560000000     0.205522   
H110     H      0.516860000000     0.421450000000     0.102840000000     0.203767   
H111     H      0.299160000000     0.407310000000     0.928530000000     0.203514   
H112     H      0.463020000000     0.528750000000     0.842940000000     0.200586   
H113     H      0.448110000000     0.437320000000     0.555280000000     0.203884   
H114     H      0.399920000000     0.435900000000     0.412970000000     0.196096   
H115     H      0.530050000000     0.579420000000     0.463490000000     0.199204   
H116     H      0.570400000000     0.456320000000     0.464280000000     0.203069   
H117     H      0.325140000000     0.417440000000     0.441440000000     0.140414   
H118     H      0.373600000000     0.510370000000     0.377730000000     0.215313   
H119     H      0.524190000000     0.590950000000     0.387360000000     0.130115   
H120     H      0.620170000000     0.610930000000     0.410240000000     0.194051   
H121     H      0.665620000000     0.554550000000     0.488640000000     0.140496   
H122     H      0.614380000000     0.448880000000     0.526810000000     0.201393   
H123     H      0.453590000000     0.368200000000     0.567210000000     0.127975   
H124     H      0.372280000000     0.339490000000     0.532080000000     0.195224   
H125     H      0.661900000000     0.611470000000     0.438480000000     0.194899   
H126     H      0.604740000000     0.451030000000     0.568500000000     0.206045   
H127     H      0.327170000000     0.346680000000     0.530350000000     0.212628   
H128     H      0.357850000000     0.499770000000     0.419640000000     0.204738   
H129     H      0.577900000000     0.540070000000     0.816170000000     0.0298019  
H130     H      0.546650000000     0.433380000000     0.641910000000     0.0227509  
H131     H      0.514150000000     0.411160000000     0.759120000000     0.0495049  
H132     H      0.558100000000     0.430720000000     0.705790000000     0.0555995  
H133     H      0.584450000000     0.542900000000     0.753350000000     0.0499402  
H134     H      0.526880000000     0.527950000000     0.706950000000     0.0696738  
H135     H      0.509690000000     0.409370000000     0.822800000000     0.0265764  
H136     H      0.513570000000     0.555210000000     0.654860000000     0.145803   
H137     H      0.466740000000     0.542390000000     0.123440000000     0.0280337  
H138     H      0.466950000000     0.430330000000     0.308590000000     0.028478   
H139     H      0.404590000000     0.411390000000     0.197500000000     0.0497287  
H140     H      0.460400000000     0.431420000000     0.245410000000     0.0572313  
H141     H      0.462520000000     0.542580000000     0.186900000000     0.0504     
H142     H      0.417000000000     0.521720000000     0.238530000000     0.0695078  
H143     H      0.410830000000     0.412370000000     0.134990000000     0.0279931  
H144     H      0.412810000000     0.542450000000     0.290050000000     0.146365   
H145     H      0.381360000000     0.775500000000     0.461910000000     0.0280242  
H146     H      0.442400000000     0.604170000000     0.543420000000     0.028688   
H147     H      0.468910000000     0.729470000000     0.549060000000     0.0487078  
H148     H      0.427490000000     0.657780000000     0.553260000000     0.0555533  
H149     H      0.371200000000     0.707800000000     0.460090000000     0.047797   
H150     H      0.418130000000     0.685640000000     0.440410000000     0.0701606  
H151     H      0.476480000000     0.796230000000     0.551220000000     0.0245904  
H152     H      0.424290000000     0.645070000000     0.405810000000     0.147079   
H153     H      0.525110000000     0.341800000000     0.408290000000     0.0351501  
H154     H      0.490330000000     0.147290000000     0.417930000000     0.0180565  
H155     H      0.552430000000     0.270530000000     0.518140000000     0.0510219  
H156     H      0.496110000000     0.213450000000     0.415320000000     0.0545707  
H157     H      0.538110000000     0.285190000000     0.403750000000     0.0478797  
H158     H      0.599290000000     0.246390000000     0.500380000000     0.0685141  
H159     H      0.541370000000     0.328320000000     0.521750000000     0.0289118  
H160     H      0.619560000000     0.199160000000     0.521580000000     0.143902   
H161     H      0.473160000000     0.994680000000     0.806810000000     0.0235627  
H162     H      0.555940000000     0.946090000000     0.652820000000     0.0213684  
H163     H      0.606580000000     0.989840000000     0.773010000000     0.0513592  
H164     H      0.556780000000     0.944890000000     0.716570000000     0.0562744  
H165     H      0.488420000000     0.004040000000     0.744750000000     0.0514757  
H166     H      0.558240000000     0.060050000000     0.705300000000     0.0708337  
H167     H      0.591310000000     0.981640000000     0.835630000000     0.0358195  
H168     H      0.562340000000     0.090180000000     0.650000000000     0.147638   
H169     H      0.511090000000     0.963630000000     0.160310000000     0.0221847  
H170     H      0.422550000000     0.004730000000     0.314630000000     0.0228513  
H171     H      0.374210000000     0.962640000000     0.193840000000     0.0503116  
H172     H      0.422870000000     0.007260000000     0.250890000000     0.0576372  
H173     H      0.494690000000     0.952240000000     0.222210000000     0.0508017  
H174     H      0.424660000000     0.893550000000     0.260890000000     0.0704774  
H175     H      0.390620000000     0.972830000000     0.131290000000     0.0283914  
H176     H      0.421520000000     0.863100000000     0.316110000000     0.146735   
H177     H      0.561580000000     0.674290000000     0.902650000000     0.0278193  
H178     H      0.551910000000     0.835750000000     0.012040000000     0.0219427  
H179     H      0.492470000000     0.712390000000     0.988130000000     0.0507609  
H180     H      0.552350000000     0.773220000000     0.006520000000     0.055277   
H181     H      0.580610000000     0.746190000000     0.902200000000     0.0488308  
H182     H      0.556930000000     0.799510000000     0.893140000000     0.0674173  
H183     H      0.476270000000     0.643240000000     0.988860000000     0.0382009  
H184     H      0.564540000000     0.861820000000     0.872600000000     0.146322   
H185     H      0.431090000000     0.285430000000     0.054850000000     0.0281247  
H186     H      0.380730000000     0.075680000000     0.010770000000     0.0213879  
H187     H      0.470760000000     0.227610000000     0.963930000000     0.0502064  
H188     H      0.374660000000     0.138170000000     0.006030000000     0.0549835  
H189     H      0.420870000000     0.216270000000     0.066160000000     0.0503434  
H190     H      0.513640000000     0.205000000000     0.043500000000     0.0690986  
H191     H      0.481010000000     0.296300000000     0.953210000000     0.0320632  
H192     H      0.549850000000     0.168620000000     0.059660000000     0.141674   
H193     H      0.892160000000     0.284690000000     0.430150000000     0.0303397  
H194     H      0.663090000000     0.154210000000     0.525950000000     0.0365752  
H195     H      0.733460000000     0.248780000000     0.442920000000     0.0484583  
H196     H      0.724900000000     0.218300000000     0.503710000000     0.0547505  
H197     H      0.841000000000     0.217420000000     0.457320000000     0.0502409  
H198     H      0.775360000000     0.152860000000     0.454720000000     0.0697343  
H199     H      0.786030000000     0.315890000000     0.417950000000     0.0183233  
H200     H      0.740870000000     0.084860000000     0.468530000000     0.146761   
H201     H      0.268790000000     0.852390000000     0.505390000000     0.0293632  
H202     H      0.173890000000     0.617840000000     0.538540000000     0.0167697  
H203     H      0.248940000000     0.725750000000     0.463990000000     0.0471902  
H204     H      0.233010000000     0.685760000000     0.522400000000     0.0549792  
H205     H      0.205960000000     0.788290000000     0.525200000000     0.0495689  
H206     H      0.136040000000     0.729130000000     0.511570000000     0.0692624  
H207     H      0.312990000000     0.790890000000     0.445390000000     0.0275646  
H208     H      0.066220000000     0.683530000000     0.529850000000     0.14378    
H209     H      0.779760000000     0.445600000000     0.505230000000     0.0206951  
H210     H      0.659820000000     0.560750000000     0.398870000000     0.0135105  
H211     H      0.801770000000     0.569340000000     0.429360000000     0.0475321  
H212     H      0.731400000000     0.569280000000     0.426080000000     0.0509319  
H213     H      0.714350000000     0.448020000000     0.476000000000     0.046922   
H214     H      0.685940000000     0.442430000000     0.416080000000     0.0674133  
H215     H      0.866850000000     0.566440000000     0.460970000000     0.0275641  
H216     H      0.616570000000     0.406640000000     0.390160000000     0.143424   
H217     H      0.110060000000     0.392970000000     0.456150000000     0.0266821  
H218     H      0.368570000000     0.534280000000     0.519200000000     0.0273197  
H219     H      0.238760000000     0.529290000000     0.476060000000     0.0447484  
H220     H      0.301930000000     0.531400000000     0.490280000000     0.0552451  
H221     H      0.178610000000     0.397270000000     0.486230000000     0.0491346  
H222     H      0.224800000000     0.406190000000     0.533270000000     0.0686403  
H223     H      0.173550000000     0.522990000000     0.441200000000     0.0194766  
H224     H      0.264960000000     0.379740000000     0.565520000000     0.144502   
H225     H      0.939330000000     0.532460000000     0.616250000000     0.026834   
H226     H      0.927470000000     0.418180000000     0.807520000000     0.0229106  
H227     H      0.975440000000     0.442400000000     0.703140000000     0.0506571  
H228     H      0.920300000000     0.418910000000     0.744020000000     0.0568961  
H229     H      0.929110000000     0.531370000000     0.678950000000     0.0489785  
H230     H      0.967280000000     0.548280000000     0.735530000000     0.0697665  
H231     H      0.982710000000     0.442580000000     0.641550000000     0.0226427  
H232     H      0.978580000000     0.576640000000     0.786730000000     0.146358   
H233     H      0.028450000000     0.416050000000     0.138690000000     0.0266616  
H234     H      0.987250000000     0.505060000000     0.296060000000     0.0133408  
H235     H      0.058820000000     0.536850000000     0.197670000000     0.0500283  
H236     H      0.000730000000     0.508680000000     0.235350000000     0.0567474  
H237     H      0.024730000000     0.409880000000     0.202720000000     0.0488502  
H238     H      0.053140000000     0.424650000000     0.261240000000     0.0695577  
H239     H      0.058060000000     0.540580000000     0.133990000000     0.0259411  
H240     H      0.050300000000     0.399530000000     0.318420000000     0.146829   
H241     H      0.899500000000     0.292700000000     0.904340000000     0.0285422  
H242     H      0.662490000000     0.151740000000     0.968460000000     0.0151861  
H243     H      0.740560000000     0.263130000000     0.901390000000     0.0485106  
H244     H      0.728320000000     0.214810000000     0.955300000000     0.0537036  
H245     H      0.838440000000     0.221500000000     0.902070000000     0.0487696  
H246     H      0.758180000000     0.162310000000     0.874930000000     0.0683436  
H247     H      0.801430000000     0.331980000000     0.906610000000     0.0178337  
H248     H      0.709760000000     0.094520000000     0.869550000000     0.146117   
H249     H      0.185000000000     0.651110000000     0.994870000000     0.0172718  
H250     H      0.278200000000     0.862130000000     0.036760000000     0.0238063  
H251     H      0.152800000000     0.716220000000     0.084170000000     0.0492144  
H252     H      0.207530000000     0.797390000000     0.040540000000     0.0556896  
H253     H      0.242210000000     0.716520000000     0.011970000000     0.0499182  
H254     H      0.282870000000     0.735360000000     0.080290000000     0.0711091  
H255     H      0.094190000000     0.648630000000     0.066280000000     0.0267414  
H256     H      0.358390000000     0.774990000000     0.089120000000     0.148583   
H257     H      0.810160000000     0.397300000000     0.047340000000     0.0137815  
H258     H      0.687900000000     0.515200000000     0.948940000000     0.0171646  
H259     H      0.799670000000     0.524000000000     0.029010000000     0.0472568  
H260     H      0.755050000000     0.517980000000     0.979250000000     0.0537161  
H261     H      0.739180000000     0.393000000000     0.026790000000     0.0452496  
H262     H      0.675220000000     0.394480000000     0.024530000000     0.0664278  
H263     H      0.872240000000     0.527280000000     0.046010000000     0.0278955  
H264     H      0.602350000000     0.362030000000     0.005610000000     0.144006   
H265     H      0.167520000000     0.567080000000     0.892440000000     0.0164412  
H266     H      0.286810000000     0.453330000000     0.005570000000     0.0153432  
H267     H      0.190010000000     0.446990000000     0.919280000000     0.0477991  
H268     H      0.221120000000     0.456010000000     0.977490000000     0.0530552  
H269     H      0.238710000000     0.576170000000     0.921950000000     0.0432866  
H270     H      0.307620000000     0.575620000000     0.928090000000     0.0674475  
H271     H      0.118470000000     0.438960000000     0.892770000000     0.0363146  
H272     H      0.382210000000     0.603180000000     0.945110000000     0.144583   
H273     H      0.585870000000     0.650800000000     0.564740000000     0.0298216  
H274     H      0.847150000000     0.803200000000     0.568680000000     0.0154462  
H275     H      0.736470000000     0.711740000000     0.515700000000     0.0514157  
H276     H      0.779520000000     0.738240000000     0.576770000000     0.0564046  
H277     H      0.644930000000     0.719080000000     0.580760000000     0.0498469  
H278     H      0.697760000000     0.795120000000     0.540830000000     0.0689906  
H279     H      0.678900000000     0.645760000000     0.500550000000     0.0170071  
H280     H      0.736070000000     0.864190000000     0.529890000000     0.143577   
H281     H      0.179800000000     0.133580000000     0.490570000000     0.0266497  
H282     H      0.396440000000     0.293270000000     0.409150000000     0.0246629  
H283     H      0.248570000000     0.159510000000     0.375930000000     0.0489941  
H284     H      0.341790000000     0.220250000000     0.408700000000     0.0554213  
H285     H      0.245830000000     0.198180000000     0.477070000000     0.0523097  
H286     H      0.234050000000     0.246520000000     0.418370000000     0.072048   
H287     H      0.181560000000     0.093250000000     0.390890000000     0.0244798  
H288     H      0.253510000000     0.312760000000     0.418480000000     0.147514   
H289     H      0.601870000000     0.973550000000     0.368050000000     0.0241467  
H290     H      0.773610000000     0.940170000000     0.491660000000     0.0352654  
H291     H      0.620370000000     0.866090000000     0.444050000000     0.0480528  
H292     H      0.695110000000     0.921610000000     0.476950000000     0.0522111  
H293     H      0.675820000000     0.977810000000     0.375600000000     0.0525228  
H294     H      0.719660000000     0.941930000000     0.366090000000     0.0688613  
H295     H      0.545920000000     0.862460000000     0.435320000000     0.0207051  
H296     H      0.790390000000     0.962570000000     0.351930000000     0.143612   
H297     H      0.200470000000     0.014660000000     0.467360000000     0.0314568  
H298     H      0.374610000000     0.004180000000     0.601060000000     0.0225692  
H299     H      0.259430000000     0.041930000000     0.591130000000     0.0486958  
H300     H      0.303970000000     0.005600000000     0.593400000000     0.05803    
H301     H      0.280520000000     0.038670000000     0.482170000000     0.0472865  
H302     H      0.355980000000     0.097450000000     0.506190000000     0.0677173  
H303     H      0.179670000000     0.017800000000     0.575750000000     0.0253754  
H304     H      0.429470000000     0.120410000000     0.495080000000     0.143532   
H305     H      0.025950000000     0.659590000000     0.383300000000     0.0283938  
H306     H      0.949250000000     0.805480000000     0.419760000000     0.0250294  
H307     H      0.004710000000     0.720990000000     0.481830000000     0.0499675  
H308     H      0.951920000000     0.743660000000     0.415500000000     0.056853   
H309     H      0.038740000000     0.729920000000     0.374260000000     0.0501023  
H310     H      0.096960000000     0.808980000000     0.428400000000     0.0686881  
H311     H      0.991400000000     0.651570000000     0.490050000000     0.0340835  
H312     H      0.128800000000     0.877310000000     0.433080000000     0.145306   
H313     H      0.969350000000     0.291710000000     0.450290000000     0.0292551  
H314     H      0.874940000000     0.074910000000     0.510640000000     0.0245314  
H315     H      0.922660000000     0.219660000000     0.568430000000     0.0505193  
H316     H      0.867700000000     0.136880000000     0.507030000000     0.0561301  
H317     H      0.956230000000     0.222140000000     0.462060000000     0.0508525  
H318     H      0.006950000000     0.204610000000     0.544020000000     0.0735617  
H319     H      0.934840000000     0.289250000000     0.555900000000     0.0275771  
H320     H      0.044250000000     0.168690000000     0.558260000000     0.147454   
H321     H      0.882640000000     0.964230000000     0.629220000000     0.0299087  
H322     H      0.924420000000     0.887970000000     0.826330000000     0.0251694  
H323     H      0.981830000000     0.935610000000     0.719400000000     0.0496518  
H324     H      0.924230000000     0.886970000000     0.762830000000     0.0565163  
H325     H      0.866370000000     0.954220000000     0.691660000000     0.0504395  
H326     H      0.903790000000     0.991620000000     0.746020000000     0.0687585  
H327     H      0.997430000000     0.945930000000     0.657510000000     0.0226119  
H328     H      0.894710000000     0.014410000000     0.794650000000     0.145671   
H329     H      0.972400000000     0.000100000000     0.303800000000     0.0250183  
H330     H      0.053610000000     0.948040000000     0.149630000000     0.0227358  
H331     H      0.100870000000     0.988070000000     0.269110000000     0.0495951  
H332     H      0.053890000000     0.947140000000     0.213200000000     0.056292   
H333     H      0.987750000000     0.010070000000     0.241780000000     0.0481181  
H334     H      0.053700000000     0.061650000000     0.200850000000     0.0699841  
H335     H      0.085440000000     0.979120000000     0.331770000000     0.0291398  
H336     H      0.056270000000     0.090670000000     0.145150000000     0.146879   
H337     H      0.817390000000     0.787500000000     0.949240000000     0.0265012  
H338     H      0.576140000000     0.657320000000     0.022600000000     0.0277021  
H339     H      0.702820000000     0.789320000000     0.017610000000     0.0503376  
H340     H      0.633400000000     0.725100000000     0.001990000000     0.0570459  
H341     H      0.753800000000     0.723080000000     0.970010000000     0.0474704  
H342     H      0.736820000000     0.691230000000     0.033550000000     0.0687884  
H343     H      0.766160000000     0.852830000000     0.996440000000     0.0296922  
H344     H      0.713310000000     0.628460000000     0.061880000000     0.14304    
H345     H      0.160780000000     0.161200000000     0.011440000000     0.0276162  
H346     H      0.399850000000     0.289870000000     0.932090000000     0.0275038  
H347     H      0.273600000000     0.158310000000     0.941700000000     0.0496841  
H348     H      0.343690000000     0.222560000000     0.955320000000     0.0569978  
H349     H      0.224940000000     0.225340000000     0.990890000000     0.0486596  
H350     H      0.239440000000     0.256150000000     0.927300000000     0.0700586  
H351     H      0.209900000000     0.095160000000     0.962790000000     0.0283324  
H352     H      0.261580000000     0.318210000000     0.898020000000     0.14339    
H353     H      0.872080000000     0.976760000000     0.093730000000     0.0243046  
H354     H      0.679210000000     0.997860000000     0.080080000000     0.0225667  
H355     H      0.860880000000     0.090410000000     0.022430000000     0.047766   
H356     H      0.756160000000     0.012620000000     0.097070000000     0.0559536  
H357     H      0.799710000000     0.975850000000     0.086690000000     0.0501011  
H358     H      0.788410000000     0.040350000000     0.987580000000     0.0668546  
H359     H      0.933340000000     0.090510000000     0.030370000000     0.0206841  
H360     H      0.732980000000     0.036790000000     0.947800000000     0.14894    
H361     H      0.292080000000     0.920400000000     0.890980000000     0.0256726  
H362     H      0.046620000000     0.854830000000     0.950950000000     0.0264428  
H363     H      0.193880000000     0.908060000000     0.983400000000     0.0458515  
H364     H      0.116600000000     0.850790000000     0.961300000000     0.0556189  
H365     H      0.212750000000     0.898280000000     0.875520000000     0.048779   
H366     H      0.171170000000     0.936810000000     0.870710000000     0.070223   
H367     H      0.273480000000     0.929930000000     0.998300000000     0.0273878  
H368     H      0.124370000000     0.957310000000     0.839740000000     0.147405   
H369     H      0.952100000000     0.605160000000     0.045820000000     0.0277862  
H370     H      0.888980000000     0.774740000000     0.962060000000     0.0233899  
H371     H      0.922050000000     0.681290000000     0.940940000000     0.0499628  
H372     H      0.878540000000     0.707060000000     0.961640000000     0.0540789  
H373     H      0.938880000000     0.660560000000     0.054590000000     0.0475155  
H374     H      0.981850000000     0.731820000000     0.045980000000     0.0681261  
H375     H      0.933250000000     0.624410000000     0.933150000000     0.0283958  
H376     H      0.011110000000     0.792140000000     0.068610000000     0.145571   
H377     H      0.997690000000     0.149560000000     0.905400000000     0.0172944  
H378     H      0.046890000000     0.328520000000     0.010840000000     0.0265266  
H379     H      0.101720000000     0.243570000000     0.993500000000     0.0479532  
H380     H      0.055940000000     0.270170000000     0.007340000000     0.0563038  
H381     H      0.007810000000     0.217900000000     0.901660000000     0.0489723  
H382     H      0.053240000000     0.289830000000     0.893390000000     0.0682574  
H383     H      0.089070000000     0.174460000000     0.997550000000     0.0282081  
H384     H      0.045930000000     0.343900000000     0.869720000000     0.145741   
N1       N      0.530340000000     0.482320000000     0.636880000000    -0.215464   
N2       N      0.541360000000     0.474480000000     0.823820000000    -0.191448   
N3       N      0.446850000000     0.475910000000     0.311420000000    -0.215572   
N4       N      0.441000000000     0.477660000000     0.124810000000    -0.1917     
N5       N      0.439420000000     0.613380000000     0.486250000000    -0.21713    
N6       N      0.431400000000     0.791500000000     0.505570000000    -0.192759   
N7       N      0.538890000000     0.156830000000     0.462200000000    -0.217041   
N8       N      0.531280000000     0.338750000000     0.465390000000    -0.191584   
N9       N      0.554920000000     0.003050000000     0.641310000000    -0.21201    
N10      N      0.531010000000     0.987360000000     0.826070000000    -0.18849    
N11      N      0.424790000000     0.948290000000     0.325500000000    -0.213969   
N12      N      0.452060000000     0.969040000000     0.140920000000    -0.189344   
N13      N      0.553910000000     0.854250000000     0.956350000000    -0.214116   
N14      N      0.518690000000     0.653440000000     0.946470000000    -0.186072   
N15      N      0.451010000000     0.104450000000     0.028350000000    -0.213743   
N16      N      0.457160000000     0.296510000000     0.003260000000    -0.18653    
N17      N      0.681280000000     0.116890000000     0.500830000000    -0.216268   
N18      N      0.843540000000     0.305870000000     0.424860000000    -0.193311   
N19      N      0.120040000000     0.633060000000     0.531150000000    -0.217897   
N20      N      0.296890000000     0.826140000000     0.475380000000    -0.192135   
N21      N      0.629120000000     0.495840000000     0.397020000000    -0.221516   
N22      N      0.828000000000     0.505060000000     0.483730000000    -0.193436   
N23      N      0.337680000000     0.471050000000     0.538620000000    -0.218263   
N24      N      0.135800000000     0.457690000000     0.448420000000    -0.194708   
N25      N      0.951550000000     0.482430000000     0.808780000000    -0.218644   
N26      N      0.960650000000     0.486950000000     0.624160000000    -0.193303   
N27      N      0.011570000000     0.462600000000     0.314710000000    -0.219051   
N28      N      0.041190000000     0.478080000000     0.131760000000    -0.193328   
N29      N      0.669300000000     0.119320000000     0.928760000000    -0.213342   
N30      N      0.854560000000     0.316690000000     0.907510000000    -0.190994   
N31      N      0.320910000000     0.835360000000     0.053470000000    -0.216261   
N32      N      0.134910000000     0.644540000000     0.029290000000    -0.190868   
N33      N      0.643120000000     0.453320000000     0.967700000000    -0.220618   
N34      N      0.847120000000     0.462880000000     0.045660000000    -0.1932     
N35      N      0.334940000000     0.511990000000     0.982840000000    -0.218509   
N36      N      0.136530000000     0.501960000000     0.893730000000    -0.196073   
N37      N      0.812340000000     0.836750000000     0.548630000000    -0.21546    
N38      N      0.627610000000     0.643030000000     0.531360000000    -0.190488   
N39      N      0.347040000000     0.310990000000     0.416700000000    -0.216906   
N40      N      0.174550000000     0.109620000000     0.440860000000    -0.190241   
N41      N      0.792970000000     0.951570000000     0.437630000000    -0.211683   
N42      N      0.569230000000     0.918650000000     0.402310000000    -0.196427   
N43      N      0.405480000000     0.048170000000     0.557350000000    -0.218718   
N44      N      0.183640000000     0.013630000000     0.520470000000    -0.18788    
N45      N      0.021270000000     0.843620000000     0.428500000000    -0.212908   
N46      N      0.007800000000     0.650010000000     0.437370000000    -0.184421   
N47      N      0.945410000000     0.104710000000     0.527320000000    -0.215544   
N48      N      0.953240000000     0.296070000000     0.502160000000    -0.188046   
N49      N      0.916400000000     0.941370000000     0.823550000000    -0.212875   
N50      N      0.941430000000     0.956180000000     0.638430000000    -0.189233   
N51      N      0.052080000000     0.004700000000     0.137490000000    -0.21274    
N52      N      0.027660000000     0.988690000000     0.322690000000    -0.189269   
N53      N      0.622810000000     0.634190000000     0.037190000000    -0.217304   
N54      N      0.797640000000     0.824810000000     0.972710000000    -0.19075    
N55      N      0.352810000000     0.312700000000     0.919530000000    -0.218848   
N56      N      0.179400000000     0.123650000000     0.987100000000    -0.191214   
N57      N      0.688160000000     0.009720000000     0.023850000000    -0.212347   
N58      N      0.907230000000     0.032710000000     0.061220000000    -0.196533   
N59      N      0.070080000000     0.899900000000     0.906760000000    -0.220074   
N60      N      0.289240000000     0.927730000000     0.945670000000    -0.189456   
N61      N      0.942200000000     0.793330000000     0.003490000000    -0.21797    
N62      N      0.945170000000     0.611560000000     0.988750000000    -0.192294   
N63      N      0.042240000000     0.342470000000     0.954340000000    -0.216905   
N64      N      0.040960000000     0.156420000000     0.952680000000    -0.193849   
O1       O      0.130320000000     0.060130000000     0.971110000000    -0.382717   
O2       O      0.108750000000     0.087240000000     0.010140000000    -0.366361   
O3       O      0.937330000000     0.981220000000     0.870170000000    -0.354453   
O4       O      0.927690000000     0.916860000000     0.880390000000    -0.377211   
O5       O      0.005260000000     0.092070000000     0.933750000000    -0.381559   
O6       O      0.041080000000     0.103550000000     0.988590000000    -0.368714   
O7       O      0.057180000000     0.953090000000     0.906220000000    -0.375524   
O8       O      0.002940000000     0.891430000000     0.925100000000    -0.351476   
O9       O      0.123330000000     0.033690000000     0.907660000000    -0.325787   
O10      O      0.122920000000     0.970630000000     0.978140000000    -0.531609   
O11      O      0.007170000000     0.062700000000     0.870500000000    -0.51606    
O12      O      0.904920000000     0.029900000000     0.908390000000    -0.345126   
O13      O      0.040840000000     0.039370000000     0.955770000000    -0.495537   
O14      O      0.002150000000     0.976990000000     0.919420000000    -0.63252    
O15      O      0.975650000000     0.857520000000     0.023290000000    -0.361964   
O16      O      0.936620000000     0.845150000000     0.969810000000    -0.371233   
O17      O      0.937020000000     0.990680000000     0.059060000000    -0.354236   
O18      O      0.980060000000     0.056010000000     0.044980000000    -0.358063   
O19      O      0.845850000000     0.888990000000     0.987910000000    -0.381092   
O20      O      0.868530000000     0.861410000000     0.950100000000    -0.364089   
O21      O      0.031110000000     0.964660000000     0.091060000000    -0.370678   
O22      O      0.048180000000     0.031010000000     0.079650000000    -0.349895   
O23      O      0.966230000000     0.881740000000     0.087070000000    -0.519268   
O24      O      0.072240000000     0.921330000000     0.053960000000    -0.357289   
O25      O      0.848020000000     0.916540000000     0.049510000000    -0.343114   
O26      O      0.856310000000     0.983650000000     0.989670000000    -0.533129   
O27      O      0.934880000000     0.909090000000     0.004220000000    -0.629504   
O28      O      0.974440000000     0.972140000000     0.040170000000    -0.467895   
O29      O      0.018610000000     0.929110000000     0.977720000000    -0.492078   
O30      O      0.957710000000     0.020090000000     0.982210000000    -0.626136   
O31      O      0.059660000000     0.994050000000     0.014880000000    -0.633255   
O32      O      0.916700000000     0.954280000000     0.945580000000    -0.491873   
O33      O      0.978190000000     0.864340000000     0.452050000000    -0.384767   
O34      O      0.049040000000     0.912360000000     0.437110000000    -0.349816   
O35      O      0.862980000000     0.964410000000     0.422800000000    -0.35433    
O36      O      0.850660000000     0.963040000000     0.480470000000    -0.361084   
O37      O      0.981240000000     0.981900000000     0.365280000000    -0.381907   
O38      O      0.047070000000     0.980840000000     0.382090000000    -0.368411   
O39      O      0.878910000000     0.860400000000     0.522900000000    -0.377525   
O40      O      0.856270000000     0.905700000000     0.532670000000    -0.34643    
O41      O      0.882540000000     0.835180000000     0.455950000000    -0.338184   
O42      O      0.957860000000     0.843650000000     0.528810000000    -0.530476   
O43      O      0.888240000000     0.922250000000     0.377700000000    -0.52763    
O44      O      0.933910000000     0.028930000000     0.377260000000    -0.335619   
O45      O      0.973120000000     0.933020000000     0.434060000000    -0.500152   
O46      O      0.908430000000     0.930090000000     0.467520000000    -0.633154   
O47      O      0.988350000000     0.963560000000     0.596000000000    -0.378297   
O48      O      0.923920000000     0.967120000000     0.579090000000    -0.36609    
O49      O      0.107380000000     0.084140000000     0.465950000000    -0.369379   
O50      O      0.116600000000     0.044470000000     0.431120000000    -0.359687   
O51      O      0.991540000000     0.085040000000     0.507540000000    -0.370282   
O52      O      0.920490000000     0.036300000000     0.521430000000    -0.365061   
O53      O      0.112840000000     0.996150000000     0.536790000000    -0.364192   
O54      O      0.122610000000     0.990340000000     0.480000000000    -0.361308   
O55      O      0.081000000000     0.023420000000     0.588170000000    -0.522424   
O56      O      0.041210000000     0.919550000000     0.580810000000    -0.356134   
O57      O      0.079010000000     0.123830000000     0.499930000000    -0.320815   
O58      O      0.022860000000     0.100350000000     0.424220000000    -0.53189    
O59      O      0.998720000000     0.016130000000     0.528570000000    -0.632476   
O60      O      0.062730000000     0.017960000000     0.494230000000    -0.489455   
O61      O      0.955670000000     0.931160000000     0.533190000000    -0.498665   
O62      O      0.017030000000     0.019230000000     0.428350000000    -0.62687    
O63      O      0.022810000000     0.933240000000     0.499910000000    -0.628349   
O64      O      0.950010000000     0.016340000000     0.461960000000    -0.495398   
O65      O      0.036690000000     0.385110000000     0.988980000000    -0.378415   
O66      O      0.017820000000     0.387370000000     0.930010000000    -0.351082   
O67      O      0.889510000000     0.432890000000     0.039360000000    -0.389942   
O68      O      0.924760000000     0.500500000000     0.042330000000    -0.353945   
O69      O      0.874490000000     0.367680000000     0.942640000000    -0.385596   
O70      O      0.927560000000     0.370400000000     0.909220000000    -0.361172   
O71      O      0.036790000000     0.452560000000     0.079170000000    -0.381042   
O72      O      0.022750000000     0.505530000000     0.080320000000    -0.383618   
O73      O      0.998810000000     0.372420000000     0.056200000000    -0.338142   
O74      O      0.106710000000     0.451720000000     0.035060000000    -0.525773   
O75      O      0.867700000000     0.354410000000     0.016890000000    -0.525958   
O76      O      0.836650000000     0.420100000000     0.966250000000    -0.356737   
O77      O      0.966610000000     0.406000000000     0.976410000000    -0.502071   
O78      O      0.969500000000     0.447560000000     0.027180000000    -0.632059   
O79      O      0.113060000000     0.594110000000     0.992650000000    -0.388139   
O80      O      0.064720000000     0.586270000000     0.033220000000    -0.363862   
O81      O      0.959460000000     0.508520000000     0.861730000000    -0.362987   
O82      O      0.967380000000     0.452370000000     0.860130000000    -0.379327   
O83      O      0.951520000000     0.570480000000     0.952760000000    -0.371241   
O84      O      0.974150000000     0.569950000000     0.011210000000    -0.370553   
O85      O      0.084140000000     0.523150000000     0.895100000000    -0.355555   
O86      O      0.060100000000     0.458930000000     0.887250000000    -0.350013   
O87      O      0.139760000000     0.602070000000     0.927380000000    -0.526144   
O88      O      0.151860000000     0.530500000000     0.976110000000    -0.363294   
O89      O      0.999890000000     0.589040000000     0.887940000000    -0.336741   
O90      O      0.888980000000     0.510010000000     0.901360000000    -0.530204   
O91      O      0.026850000000     0.552340000000     0.964120000000    -0.633535   
O92      O      0.023380000000     0.510270000000     0.913370000000    -0.469371   
O93      O      0.059700000000     0.507730000000     0.012850000000    -0.495672   
O94      O      0.933090000000     0.451240000000     0.927290000000    -0.631623   
O95      O      0.056800000000     0.466190000000     0.961300000000    -0.625413   
O96      O      0.936360000000     0.491630000000     0.978710000000    -0.491762   
O97      O      0.957250000000     0.353670000000     0.520560000000    -0.372087   
O98      O      0.974170000000     0.354190000000     0.464310000000    -0.358163   
O99      O      0.856020000000     0.461190000000     0.491560000000    -0.387362   
O100     O      0.904740000000     0.528010000000     0.493780000000    -0.359908   
O101     O      0.861530000000     0.369740000000     0.435110000000    -0.385332   
O102     O      0.916380000000     0.358280000000     0.419000000000    -0.364312   
O103     O      0.967410000000     0.454680000000     0.580710000000    -0.38244    
O104     O      0.962930000000     0.512930000000     0.565980000000    -0.378676   
O105     O      0.904960000000     0.370740000000     0.564560000000    -0.340174   
O106     O      0.022620000000     0.412900000000     0.573610000000    -0.528731   
O107     O      0.809380000000     0.391650000000     0.461450000000    -0.514042   
O108     O      0.857660000000     0.458650000000     0.399730000000    -0.355325   
O109     O      0.930040000000     0.402690000000     0.475560000000    -0.498129   
O110     O      0.925730000000     0.454340000000     0.510820000000    -0.62681    
O111     O      0.100640000000     0.570930000000     0.514280000000    -0.388622   
O112     O      0.045000000000     0.583960000000     0.525250000000    -0.349441   
O113     O      0.003510000000     0.495050000000     0.357610000000    -0.37899    
O114     O      0.999130000000     0.432910000000     0.371850000000    -0.36273    
O115     O      0.002810000000     0.592610000000     0.416780000000    -0.363813   
O116     O      0.989810000000     0.591950000000     0.474280000000    -0.35232    
O117     O      0.092090000000     0.488470000000     0.433410000000    -0.352742   
O118     O      0.058800000000     0.421550000000     0.434920000000    -0.358142   
O119     O      0.151420000000     0.562350000000     0.475280000000    -0.521055   
O120     O      0.114900000000     0.483880000000     0.527280000000    -0.363715   
O121     O      0.058650000000     0.578310000000     0.374780000000    -0.333543   
O122     O      0.940440000000     0.531060000000     0.362630000000    -0.52387    
O123     O      0.033220000000     0.544180000000     0.462330000000    -0.633234   
O124     O      0.036760000000     0.491570000000     0.427790000000    -0.45968    
O125     O      0.019610000000     0.492790000000     0.525600000000    -0.495978   
O126     O      0.943120000000     0.453460000000     0.411680000000    -0.62292    
O127     O      0.025500000000     0.438240000000     0.491290000000    -0.630887   
O128     O      0.937830000000     0.508270000000     0.446640000000    -0.491697   
O129     O      0.359710000000     0.944470000000     0.929110000000    -0.375019   
O130     O      0.350930000000     0.952500000000     0.985480000000    -0.365187   
O131     O      0.510840000000     0.872600000000     0.982650000000    -0.375054   
O132     O      0.560100000000     0.918550000000     0.942650000000    -0.347046   
O133     O      0.388370000000     0.860520000000     0.028500000000    -0.364303   
O134     O      0.363360000000     0.904290000000     0.037970000000    -0.362389   
O135     O      0.483440000000     0.978200000000     0.868650000000    -0.371524   
O136     O      0.551930000000     0.982470000000     0.885330000000    -0.360587   
O137     O      0.393350000000     0.910320000000     0.882420000000    -0.343156   
O138     O      0.423280000000     0.013590000000     0.879400000000    -0.526228   
O139     O      0.407730000000     0.841910000000     0.954380000000    -0.533875   
O140     O      0.454540000000     0.838680000000     0.037900000000    -0.322864   
O141     O      0.414530000000     0.926680000000     0.973730000000    -0.497532   
O142     O      0.480240000000     0.931240000000     0.939380000000    -0.629061   
O143     O      0.599340000000     0.091880000000     0.949840000000    -0.387656   
O144     O      0.619750000000     0.049380000000     0.929930000000    -0.333195   
O145     O      0.499680000000     0.978120000000     0.098460000000    -0.37396    
O146     O      0.430620000000     0.972670000000     0.081590000000    -0.368233   
O147     O      0.618930000000     0.997030000000     0.040390000000    -0.373221   
O148     O      0.628290000000     0.994640000000     0.982700000000    -0.347426   
O149     O      0.497140000000     0.078740000000     0.019140000000    -0.346677   
O150     O      0.422430000000     0.035540000000     0.020570000000    -0.368729   
O151     O      0.568980000000     0.131150000000     0.981060000000    -0.512197   
O152     O      0.494620000000     0.089460000000     0.923610000000    -0.363526   
O153     O      0.592350000000     0.045520000000     0.079720000000    -0.340264   
O154     O      0.554250000000     0.938990000000     0.091370000000    -0.526639   
O155     O      0.567030000000     0.026000000000     0.993850000000    -0.630592   
O156     O      0.501350000000     0.020880000000     0.027740000000    -0.48056    
O157     O      0.515910000000     0.016750000000     0.928510000000    -0.495851   
O158     O      0.465710000000     0.935870000000     0.038280000000    -0.63334    
O159     O      0.447110000000     0.011290000000     0.961790000000    -0.628125   
O160     O      0.533280000000     0.941450000000     0.004820000000    -0.495899   
O161     O      0.504820000000     0.093280000000     0.441740000000    -0.382415   
O162     O      0.541850000000     0.103670000000     0.496070000000    -0.347043   
O163     O      0.346260000000     0.889150000000     0.492210000000    -0.386447   
O164     O      0.366480000000     0.863660000000     0.450880000000    -0.366827   
O165     O      0.418960000000     0.995390000000     0.557430000000    -0.391035   
O166     O      0.473640000000     0.057250000000     0.540090000000    -0.331324   
O167     O      0.446520000000     0.987480000000     0.372540000000    -0.371998   
O168     O      0.428220000000     0.920750000000     0.382840000000    -0.351958   
O169     O      0.408600000000     0.032920000000     0.409380000000    -0.356111   
O170     O      0.515070000000     0.069320000000     0.377830000000    -0.52015    
O171     O      0.355660000000     0.982010000000     0.480920000000    -0.531997   
O172     O      0.346400000000     0.919790000000     0.551160000000    -0.330233   
O173     O      0.458410000000     0.021060000000     0.486040000000    -0.4921     
O174     O      0.417190000000     0.957200000000     0.447550000000    -0.63149    
O175     O      0.538190000000     0.959390000000     0.404980000000    -0.350569   
O176     O      0.495730000000     0.893970000000     0.417820000000    -0.354874   
O177     O      0.534410000000     0.963580000000     0.594270000000    -0.379234   
O178     O      0.545580000000     0.028420000000     0.584390000000    -0.356129   
O179     O      0.467230000000     0.854640000000     0.527210000000    -0.371833   
O180     O      0.431670000000     0.845700000000     0.472200000000    -0.369783   
O181     O      0.630390000000     0.055670000000     0.481110000000    -0.36982    
O182     O      0.608360000000     0.082690000000     0.519740000000    -0.360801   
O183     O      0.617340000000     0.961960000000     0.475050000000    -0.534072   
O184     O      0.629280000000     0.031820000000     0.417050000000    -0.335273   
O185     O      0.564710000000     0.913130000000     0.556980000000    -0.359839   
O186     O      0.460120000000     0.882480000000     0.590960000000    -0.521536   
O187     O      0.516240000000     0.927530000000     0.481410000000    -0.627483   
O188     O      0.556840000000     0.991800000000     0.519250000000    -0.501099   
O189     O      0.502690000000     0.977940000000     0.423600000000    -0.465416   
O190     O      0.471610000000     0.970440000000     0.544080000000    -0.633022   
O191     O      0.542820000000     0.040010000000     0.461120000000    -0.630237   
O192     O      0.432590000000     0.909430000000     0.506320000000    -0.4946     
O193     O      0.456280000000     0.352070000000     0.021890000000    -0.367128   
O194     O      0.480460000000     0.356240000000     0.967360000000    -0.351338   
O195     O      0.359760000000     0.466800000000     0.981660000000    -0.389249   
O196     O      0.410390000000     0.530620000000     0.995790000000    -0.346891   
O197     O      0.371650000000     0.376730000000     0.930240000000    -0.370725   
O198     O      0.427220000000     0.363650000000     0.919180000000    -0.366483   
O199     O      0.448740000000     0.445300000000     0.081700000000    -0.381589   
O200     O      0.461360000000     0.510520000000     0.069330000000    -0.377397   
O201     O      0.393270000000     0.364580000000     0.056980000000    -0.339663   
O202     O      0.509290000000     0.406810000000     0.081860000000    -0.527939   
O203     O      0.317770000000     0.402220000000     0.947370000000    -0.507749   
O204     O      0.378850000000     0.470080000000     0.891840000000    -0.354053   
O205     O      0.434060000000     0.405470000000     0.974430000000    -0.499201   
O206     O      0.426440000000     0.455750000000     0.008950000000    -0.629978   
O207     O      0.605300000000     0.570630000000     0.025520000000    -0.372518   
O208     O      0.548420000000     0.584090000000     0.031910000000    -0.368263   
O209     O      0.534420000000     0.506890000000     0.867360000000    -0.374298   
O210     O      0.515530000000     0.439800000000     0.877750000000    -0.378117   
O211     O      0.521350000000     0.599560000000     0.925110000000    -0.362997   
O212     O      0.494890000000     0.592470000000     0.979380000000    -0.35423    
O213     O      0.605600000000     0.489370000000     0.950460000000    -0.358812   
O214     O      0.567680000000     0.422640000000     0.947800000000    -0.349475   
O215     O      0.660160000000     0.549480000000     0.999840000000    -0.516808   
O216     O      0.604650000000     0.474870000000     0.048000000000    -0.362165   
O217     O      0.583290000000     0.587540000000     0.889510000000    -0.335793   
O218     O      0.467790000000     0.541940000000     0.864410000000    -0.52484    
O219     O      0.543410000000     0.545690000000     0.972460000000    -0.63609    
O220     O      0.550230000000     0.494420000000     0.938720000000    -0.463154   
O221     O      0.517910000000     0.489160000000     0.034030000000    -0.496784   
O222     O      0.459460000000     0.461550000000     0.912770000000    -0.624286   
O223     O      0.526320000000     0.436500000000     0.999300000000    -0.630018   
O224     O      0.451270000000     0.514540000000     0.947920000000    -0.489609   
O225     O      0.525530000000     0.382370000000     0.498510000000    -0.374271   
O226     O      0.507850000000     0.383330000000     0.439150000000    -0.365378   
O227     O      0.376760000000     0.436240000000     0.540240000000    -0.368705   
O228     O      0.415440000000     0.504200000000     0.540240000000    -0.355468   
O229     O      0.366150000000     0.363420000000     0.450250000000    -0.369868   
O230     O      0.418460000000     0.367120000000     0.415460000000    -0.368617   
O231     O      0.528560000000     0.456700000000     0.584600000000    -0.382263   
O232     O      0.507990000000     0.505540000000     0.583940000000    -0.364569   
O233     O      0.484640000000     0.373050000000     0.564760000000    -0.338373   
O234     O      0.594420000000     0.447510000000     0.543830000000    -0.5253     
O235     O      0.357810000000     0.355910000000     0.524230000000    -0.521792   
O236     O      0.326230000000     0.417440000000     0.467560000000    -0.34417    
O237     O      0.456580000000     0.404480000000     0.482750000000    -0.500304   
O238     O      0.458750000000     0.447710000000     0.531700000000    -0.633756   
O239     O      0.605190000000     0.591500000000     0.495860000000    -0.387944   
O240     O      0.556400000000     0.586010000000     0.534960000000    -0.360257   
O241     O      0.449640000000     0.501610000000     0.363880000000    -0.359744   
O242     O      0.463830000000     0.448810000000     0.364480000000    -0.376862   
O243     O      0.444760000000     0.570020000000     0.451810000000    -0.35337    
O244     O      0.468190000000     0.571990000000     0.510050000000    -0.371563   
O245     O      0.578220000000     0.518590000000     0.400070000000    -0.36245    
O246     O      0.552130000000     0.453120000000     0.395690000000    -0.344034   
O247     O      0.630350000000     0.598350000000     0.430210000000    -0.525211   
O248     O      0.643350000000     0.527640000000     0.480150000000    -0.366358   
O249     O      0.492020000000     0.584240000000     0.386720000000    -0.324773   
O250     O      0.380750000000     0.507520000000     0.402880000000    -0.529007   
O251     O      0.518400000000     0.550210000000     0.465650000000    -0.635113   
O252     O      0.515130000000     0.506480000000     0.416990000000    -0.476677   
O253     O      0.550360000000     0.506870000000     0.517100000000    -0.496961   
O254     O      0.423950000000     0.448150000000     0.430970000000    -0.634148   
O255     O      0.547140000000     0.462960000000     0.467920000000    -0.627313   
O256     O      0.427740000000     0.490980000000     0.480330000000    -0.4968     
O257     O      0.515210000000     0.538270000000     0.637720000000    -0.288453   
O258     O      0.422280000000     0.526250000000     0.308060000000    -0.293477   
O259     O      0.431740000000     0.627000000000     0.423180000000    -0.287726   
O260     O      0.598610000000     0.175390000000     0.508020000000    -0.289629   
O261     O      0.559930000000     0.069390000000     0.635050000000    -0.287666   
O262     O      0.422880000000     0.883300000000     0.331250000000    -0.287445   
O263     O      0.561310000000     0.872410000000     0.894080000000    -0.294411   
O264     O      0.527220000000     0.140770000000     0.053180000000    -0.292548   
O265     O      0.713860000000     0.079740000000     0.480600000000    -0.291644   
O266     O      0.066820000000     0.657300000000     0.532130000000    -0.286999   
O267     O      0.604970000000     0.426460000000     0.386800000000    -0.288976   
O268     O      0.296540000000     0.402510000000     0.564370000000    -0.296993   
O269     O      0.974250000000     0.553900000000     0.804920000000    -0.289531   
O270     O      0.038390000000     0.414220000000     0.329990000000    -0.287645   
O271     O      0.686060000000     0.087720000000     0.886230000000    -0.284376   
O272     O      0.363380000000     0.802370000000     0.079080000000    -0.294824   
O273     O      0.598660000000     0.383640000000     0.990300000000    -0.296506   
O274     O      0.384020000000     0.580140000000     0.959500000000    -0.289546   
O275     O      0.768230000000     0.870490000000     0.531940000000    -0.291516   
O276     O      0.287070000000     0.326700000000     0.418590000000    -0.301544   
O277     O      0.806910000000     0.964100000000     0.375390000000    -0.29249    
O278     O      0.437570000000     0.101920000000     0.511290000000    -0.288556   
O279     O      0.102240000000     0.881510000000     0.433700000000    -0.292658   
O280     O      0.021810000000     0.141020000000     0.551260000000    -0.295836   
O281     O      0.900100000000     0.997110000000     0.814350000000    -0.290724   
O282     O      0.054640000000     0.069990000000     0.130460000000    -0.28674    
O283     O      0.679830000000     0.616250000000     0.059920000000    -0.297427   
O284     O      0.295020000000     0.330310000000     0.898670000000    -0.301598   
O285     O      0.706690000000     0.027090000000     0.962590000000    -0.279706   
O286     O      0.097610000000     0.944720000000     0.854450000000    -0.294199   
O287     O      0.997290000000     0.806420000000     0.052570000000    -0.299938   
O288     O      0.042960000000     0.355300000000     0.890780000000    -0.288015   
Zr1      Zr     0.070850000000     0.994860000000     0.954170000000     1.38693    
Zr2      Zr     0.970850000000     0.020110000000     0.922520000000     1.37968    
Zr3      Zr     0.004750000000     0.928120000000     0.037370000000     1.38735    
Zr4      Zr     0.905380000000     0.954080000000     0.006150000000     1.37011    
Zr5      Zr     0.028350000000     0.038390000000     0.016440000000     1.37859    
Zr6      Zr     0.948890000000     0.910620000000     0.943620000000     1.36498    
Zr7      Zr     0.944450000000     0.890630000000     0.486840000000     1.38704    
Zr8      Zr     0.938780000000     0.974540000000     0.416050000000     1.38182    
Zr9      Zr     0.033620000000     0.974810000000     0.545920000000     1.38348    
Zr10     Zr     0.028150000000     0.058500000000     0.475920000000     1.38697    
Zr11     Zr     0.051770000000     0.977350000000     0.447050000000     1.36054    
Zr12     Zr     0.920000000000     0.971910000000     0.514100000000     1.36506    
Zr13     Zr     0.029580000000     0.435730000000     0.017890000000     1.38794    
Zr14     Zr     0.907720000000     0.420060000000     0.984310000000     1.38179    
Zr15     Zr     0.085520000000     0.537890000000     0.955700000000     1.37022    
Zr16     Zr     0.964180000000     0.523460000000     0.922760000000     1.39069    
Zr17     Zr     0.992870000000     0.437580000000     0.919240000000     1.3771     
Zr18     Zr     0.998960000000     0.520030000000     0.020780000000     1.37261    
Zr19     Zr     0.969120000000     0.421350000000     0.531030000000     1.38214    
Zr20     Zr     0.888900000000     0.437120000000     0.453580000000     1.3781     
Zr21     Zr     0.074470000000     0.509740000000     0.484240000000     1.36786    
Zr22     Zr     0.994240000000     0.525320000000     0.406670000000     1.37486    
Zr23     Zr     0.985840000000     0.419380000000     0.434630000000     1.36867    
Zr24     Zr     0.976530000000     0.526330000000     0.503080000000     1.37065    
Zr25     Zr     0.438990000000     0.966600000000     0.919410000000     1.37995    
Zr26     Zr     0.456240000000     0.892700000000     0.994630000000     1.3862     
Zr27     Zr     0.524330000000     0.059390000000     0.972450000000     1.37304    
Zr28     Zr     0.542460000000     0.985590000000     0.047820000000     1.38048    
Zr29     Zr     0.423920000000     0.971090000000     0.017120000000     1.36081    
Zr30     Zr     0.557700000000     0.981840000000     0.949810000000     1.37021    
Zr31     Zr     0.474000000000     0.023030000000     0.426680000000     1.384      
Zr32     Zr     0.404370000000     0.955310000000     0.508010000000     1.38649    
Zr33     Zr     0.570210000000     0.993560000000     0.458960000000     1.37317    
Zr34     Zr     0.501140000000     0.925990000000     0.540920000000     1.37693    
Zr35     Zr     0.526680000000     0.036930000000     0.521390000000     1.3817     
Zr36     Zr     0.447070000000     0.911800000000     0.445890000000     1.37717    
Zr37     Zr     0.463970000000     0.418390000000     0.033190000000     1.38283    
Zr38     Zr     0.399070000000     0.444130000000     0.948870000000     1.38575    
Zr39     Zr     0.578930000000     0.507280000000     0.998290000000     1.37161    
Zr40     Zr     0.513640000000     0.532550000000     0.913810000000     1.37674    
Zr41     Zr     0.495830000000     0.423070000000     0.939460000000     1.36872    
Zr42     Zr     0.480870000000     0.526810000000     0.007490000000     1.37004    
Zr43     Zr     0.518790000000     0.434790000000     0.524750000000     1.38413    
Zr44     Zr     0.397640000000     0.419270000000     0.488410000000     1.38966    
Zr45     Zr     0.576760000000     0.534610000000     0.459620000000     1.37206    
Zr46     Zr     0.455890000000     0.520510000000     0.424040000000     1.39277    
Zr47     Zr     0.483990000000     0.433970000000     0.425390000000     1.38086    
Zr48     Zr     0.489860000000     0.520230000000     0.522640000000     1.3858     


