data_structure

_audit_creation_method RASPA-1.0
_audit_creation_date 2023-6-4
_audit_author_name 'Poobodin Mano'

_cell_length_a    34.1868
_cell_length_b    37.5366
_cell_length_c    38.2393
_cell_angle_alpha 82.7549
_cell_angle_beta  96.3297
_cell_angle_gamma 119.44
_cell_volume      42326.9

_symmetry_cell_setting          triclinic
_symmetry_space_group_name_Hall 'P 1'
_symmetry_space_group_name_H-M  'P 1'
_symmetry_Int_Tables_number     1

_symmetry_equiv_pos_as_xyz 'x,y,z'

loop_
_atom_site_label
_atom_site_type_symbol
_atom_site_fract_x
_atom_site_fract_y
_atom_site_fract_z
_atom_site_charge
C1       C      0.134410000000     0.079090000000     0.004540000000     0.40007    
C2       C      0.938860000000     0.959900000000     0.851220000000     0.396093   
C3       C      0.038010000000     0.120170000000     0.961740000000     0.398981   
C4       C      0.035540000000     0.901470000000     0.927600000000     0.376105   
C5       C      0.936100000000     0.830640000000     0.987080000000     0.401363   
C6       C      0.931200000000     0.022850000000     0.049510000000     0.370586   
C7       C      0.835530000000     0.869300000000     0.946450000000     0.394521   
C8       C      0.025980000000     0.989440000000     0.100050000000     0.395469   
C9       C      0.011440000000     0.877790000000     0.432150000000     0.393727   
C10      C      0.837860000000     0.966510000000     0.443070000000     0.391554   
C11      C      0.015350000000     0.985460000000     0.354420000000     0.39671    
C12      C      0.848150000000     0.872060000000     0.527860000000     0.392919   
C13      C      0.950110000000     0.966380000000     0.597260000000     0.396362   
C14      C      0.130150000000     0.079680000000     0.443620000000     0.392232   
C15      C      0.954220000000     0.078050000000     0.516240000000     0.392507   
C16      C      0.133900000000     0.000050000000     0.507420000000     0.400652   
C17      C      0.033640000000     0.374990000000     0.965500000000     0.397197   
C18      C      0.879070000000     0.465960000000     0.036700000000     0.394167   
C19      C      0.889370000000     0.351690000000     0.920010000000     0.391615   
C20      C      0.021460000000     0.481260000000     0.097030000000     0.395888   
C21      C      0.090310000000     0.612680000000     0.013580000000     0.389883   
C22      C      0.964880000000     0.480270000000     0.845070000000     0.400904   
C23      C      0.948550000000     0.581340000000     0.979260000000     0.402019   
C24      C      0.096480000000     0.496660000000     0.895380000000     0.379585   
C25      C      0.965070000000     0.341450000000     0.495860000000     0.39145    
C26      C      0.860470000000     0.499130000000     0.490320000000     0.398186   
C27      C      0.875850000000     0.352850000000     0.421140000000     0.399071   
C28      C      0.971180000000     0.493650000000     0.588430000000     0.403624   
C29      C      0.083070000000     0.596420000000     0.523550000000     0.389701   
C30      C      0.012420000000     0.470240000000     0.351940000000     0.399426   
C31      C      0.995510000000     0.613140000000     0.441480000000     0.384099   
C32      C      0.098110000000     0.460290000000     0.441760000000     0.384626   
C33      C      0.339570000000     0.964120000000     0.940720000000     0.392499   
C34      C      0.518660000000     0.880320000000     0.933140000000     0.392765   
C35      C      0.348460000000     0.872800000000     0.021540000000     0.390185   
C36      C      0.520930000000     0.992050000000     0.851560000000     0.391025   
C37      C      0.630590000000     0.086740000000     0.933760000000     0.389494   
C38      C      0.454370000000     0.969010000000     0.095660000000     0.392112   
C39      C      0.633590000000     0.991600000000     0.006790000000     0.38791    
C40      C      0.457730000000     0.078600000000     0.018450000000     0.392027   
C41      C      0.521770000000     0.118070000000     0.460310000000     0.400648   
C42      C      0.337990000000     0.860920000000     0.455080000000     0.40238    
C43      C      0.424440000000     0.029060000000     0.544490000000     0.392507   
C44      C      0.434900000000     0.957600000000     0.350670000000     0.397234   
C45      C      0.536720000000     0.931110000000     0.395870000000     0.373663   
C46      C      0.535200000000     0.996040000000     0.596320000000     0.386038   
C47      C      0.436760000000     0.832320000000     0.488870000000     0.402927   
C48      C      0.631030000000     0.088130000000     0.496430000000     0.397112   
C49      C      0.465530000000     0.340610000000     0.004140000000     0.388572   
C50      C      0.373900000000     0.508280000000     0.999640000000     0.393977   
C51      C      0.374910000000     0.349560000000     0.937420000000     0.401363   
C52      C      0.477380000000     0.496360000000     0.096080000000     0.39812    
C53      C      0.597850000000     0.603790000000     0.023390000000     0.393727   
C54      C      0.511150000000     0.467400000000     0.858200000000     0.399115   
C55      C      0.507430000000     0.616910000000     0.947930000000     0.385368   
C56      C      0.595750000000     0.455060000000     0.944050000000     0.38069    
C57      C      0.521260000000     0.374330000000     0.468380000000     0.400004   
C58      C      0.376830000000     0.470700000000     0.546400000000     0.398368   
C59      C      0.378310000000     0.350690000000     0.430530000000     0.396554   
C60      C      0.517440000000     0.481890000000     0.602440000000     0.3939     
C61      C      0.587140000000     0.613440000000     0.518570000000     0.390946   
C62      C      0.453420000000     0.481390000000     0.350900000000     0.401825   
C63      C      0.440960000000     0.581850000000     0.487340000000     0.403788   
C64      C      0.582780000000     0.494780000000     0.397570000000     0.379652   
C65      C      0.510340000000     0.432930000000     0.772290000000    -0.0852437  
C66      C      0.529810000000     0.470720000000     0.751910000000     0.0330947  
C67      C      0.548400000000     0.506760000000     0.769020000000    -0.0865681  
C68      C      0.543510000000     0.504760000000     0.804850000000     0.0678203  
C69      C      0.506640000000     0.432040000000     0.808630000000     0.0663234  
C70      C      0.527560000000     0.473370000000     0.712770000000     0.0330608  
C71      C      0.536110000000     0.448230000000     0.694340000000    -0.0851795  
C72      C      0.533500000000     0.451950000000     0.657360000000     0.0651603  
C73      C      0.513970000000     0.504520000000     0.656770000000     0.0679938  
C74      C      0.516340000000     0.501660000000     0.693450000000    -0.0864685  
C75      C      0.453290000000     0.521720000000     0.178070000000    -0.0850808  
C76      C      0.464280000000     0.496800000000     0.203150000000     0.0345491  
C77      C      0.484080000000     0.475760000000     0.191580000000    -0.088076   
C78      C      0.489030000000     0.476960000000     0.155900000000     0.0723126  
C79      C      0.460000000000     0.523170000000     0.142230000000     0.0676777  
C80      C      0.455340000000     0.491810000000     0.241200000000     0.0337234  
C81      C      0.459760000000     0.524320000000     0.258740000000    -0.0849163  
C82      C      0.456370000000     0.519620000000     0.295390000000     0.0680276  
C83      C      0.442850000000     0.451150000000     0.297380000000     0.0701651  
C84      C      0.444560000000     0.454340000000     0.260920000000    -0.0858422  
C85      C      0.410800000000     0.729550000000     0.528100000000    -0.0870099  
C86      C      0.402050000000     0.708900000000     0.497590000000     0.0334722  
C87      C      0.398200000000     0.728810000000     0.464960000000    -0.087543   
C88      C      0.407150000000     0.769250000000     0.463000000000     0.0697256  
C89      C      0.420910000000     0.770610000000     0.525050000000     0.068836   
C90      C      0.404420000000     0.670260000000     0.498760000000     0.0334861  
C91      C      0.433620000000     0.663390000000     0.523790000000    -0.0868199  
C92      C      0.443690000000     0.632490000000     0.520310000000     0.0701022  
C93      C      0.395550000000     0.613460000000     0.468560000000     0.069058   
C94      C      0.383470000000     0.643330000000     0.471940000000    -0.0874005  
C95      C      0.516720000000     0.211940000000     0.429910000000    -0.0873468  
C96      C      0.543360000000     0.237440000000     0.456520000000     0.0338046  
C97      C      0.566720000000     0.223670000000     0.481920000000    -0.0879747  
C98      C      0.560240000000     0.184080000000     0.482090000000     0.0695878  
C99      C      0.511830000000     0.172810000000     0.430390000000     0.0675409  
C100     C      0.543390000000     0.276390000000     0.459580000000     0.0329061  
C101     C      0.539450000000     0.299980000000     0.429450000000    -0.0872713  
C102     C      0.532990000000     0.333150000000     0.432920000000     0.0679768  
C103     C      0.538050000000     0.322410000000     0.495350000000     0.0667497  
C104     C      0.543630000000     0.288530000000     0.492830000000    -0.0860607  
C105     C      0.546340000000     0.969530000000     0.691530000000    -0.0870905  
C106     C      0.548150000000     0.002890000000     0.705790000000     0.0338426  
C107     C      0.550490000000     0.035810000000     0.682620000000    -0.0858046  
C108     C      0.548770000000     0.034060000000     0.646120000000     0.0672024  
C109     C      0.543890000000     0.968420000000     0.654810000000     0.0652139  
C110     C      0.543220000000     0.001740000000     0.744180000000     0.0342034  
C111     C      0.510540000000     0.009380000000     0.755110000000    -0.0865352  
C112     C      0.503790000000     0.006050000000     0.790960000000     0.0686467  
C113     C      0.562370000000     0.989460000000     0.806020000000     0.0660311  
C114     C      0.569310000000     0.991600000000     0.770090000000    -0.086617   
C115     C      0.463340000000     0.949280000000     0.191890000000    -0.0862413  
C116     C      0.429530000000     0.955340000000     0.202790000000     0.0328264  
C117     C      0.403470000000     0.965650000000     0.177000000000    -0.0850652  
C118     C      0.411470000000     0.969380000000     0.141130000000     0.0668316  
C119     C      0.471160000000     0.954230000000     0.156120000000     0.0671761  
C120     C      0.423800000000     0.953060000000     0.241110000000     0.033628   
C121     C      0.425690000000     0.986150000000     0.255830000000    -0.0870401  
C122     C      0.427660000000     0.986470000000     0.292540000000     0.0667121  
C123     C      0.421990000000     0.920490000000     0.300360000000     0.0680439  
C124     C      0.420920000000     0.919580000000     0.263760000000    -0.0854444  
C125     C      0.571410000000     0.816620000000     0.926780000000    -0.0844854  
C126     C      0.532990000000     0.778690000000     0.921180000000     0.0331132  
C127     C      0.491560000000     0.777580000000     0.914240000000    -0.0871162  
C128     C      0.488280000000     0.812850000000     0.915980000000     0.0704844  
C129     C      0.567060000000     0.852050000000     0.927260000000     0.0663204  
C130     C      0.533470000000     0.739090000000     0.927950000000     0.0315687  
C131     C      0.531440000000     0.716940000000     0.900320000000    -0.0843597  
C132     C      0.523610000000     0.676330000000     0.907390000000     0.0634441  
C133     C      0.518990000000     0.679250000000     0.968210000000     0.0651305  
C134     C      0.527690000000     0.719930000000     0.962160000000    -0.0863128  
C135     C      0.451670000000     0.239740000000     0.990400000000    -0.0871299  
C136     C      0.443060000000     0.219600000000     0.024200000000     0.0315058  
C137     C      0.440900000000     0.240250000000     0.051330000000    -0.0849207  
C138     C      0.447690000000     0.280530000000     0.044210000000     0.0637497  
C139     C      0.458900000000     0.279930000000     0.984300000000     0.0651665  
C140     C      0.443870000000     0.180210000000     0.031300000000     0.0322074  
C141     C      0.405380000000     0.142220000000     0.026320000000    -0.0849251  
C142     C      0.409750000000     0.106890000000     0.025510000000     0.0644311  
C143     C      0.488690000000     0.146190000000     0.035820000000     0.0681999  
C144     C      0.485440000000     0.181480000000     0.037590000000    -0.0867632  
C145     C      0.743480000000     0.160650000000     0.469030000000    -0.0861415  
C146     C      0.745230000000     0.197790000000     0.473360000000     0.0325075  
C147     C      0.712360000000     0.197080000000     0.492940000000    -0.0856622  
C148     C      0.676100000000     0.159530000000     0.504240000000     0.0663879  
C149     C      0.706850000000     0.123910000000     0.480500000000     0.0686596  
C150     C      0.779060000000     0.236580000000     0.455310000000     0.0328193  
C151     C      0.823450000000     0.244860000000     0.452990000000    -0.0858312  
C152     C      0.854890000000     0.282670000000     0.437410000000     0.0677539  
C153     C      0.798790000000     0.302680000000     0.423940000000     0.0673012  
C154     C      0.766500000000     0.265240000000     0.439000000000    -0.0889441  
C155     C      0.196450000000     0.679540000000     0.507820000000    -0.0889054  
C156     C      0.187380000000     0.710890000000     0.492830000000     0.0318579  
C157     C      0.143720000000     0.704970000000     0.493870000000    -0.0866665  
C158     C      0.109840000000     0.667530000000     0.507630000000     0.0640094  
C159     C      0.161650000000     0.642370000000     0.521160000000     0.0654041  
C160     C      0.223720000000     0.750200000000     0.477620000000     0.0332038  
C161     C      0.256960000000     0.751400000000     0.458150000000    -0.0853976  
C162     C      0.293620000000     0.789210000000     0.447740000000     0.0686702  
C163     C      0.263310000000     0.824090000000     0.473290000000     0.0691861  
C164     C      0.226430000000     0.787210000000     0.483840000000    -0.0860645  
C165     C      0.744260000000     0.475870000000     0.476720000000    -0.0864619  
C166     C      0.748430000000     0.509890000000     0.454220000000     0.0347636  
C167     C      0.791460000000     0.544430000000     0.451480000000    -0.0838462  
C168     C      0.829240000000     0.542420000000     0.467920000000     0.0684467  
C169     C      0.782480000000     0.474470000000     0.491580000000     0.0708413  
C170     C      0.707930000000     0.507900000000     0.433290000000     0.0332197  
C171     C      0.702310000000     0.542610000000     0.425070000000    -0.0813254  
C172     C      0.661320000000     0.538280000000     0.409520000000     0.0647754  
C173     C      0.632770000000     0.467000000000     0.407260000000     0.0638581  
C174     C      0.673440000000     0.470280000000     0.422010000000    -0.085994   
C175     C      0.170820000000     0.426300000000     0.495370000000    -0.0838784  
C176     C      0.212660000000     0.462550000000     0.494910000000     0.0350047  
C177     C      0.215340000000     0.496700000000     0.473190000000    -0.0842971  
C178     C      0.177010000000     0.494870000000     0.454560000000     0.0702697  
C179     C      0.133590000000     0.425060000000     0.475140000000     0.0671619  
C180     C      0.253570000000     0.464360000000     0.515460000000     0.0351789  
C181     C      0.257000000000     0.428600000000     0.524930000000    -0.0855248  
C182     C      0.297400000000     0.431210000000     0.539500000000     0.0735127  
C183     C      0.331360000000     0.503490000000     0.537870000000     0.0711628  
C184     C      0.290820000000     0.501940000000     0.524340000000    -0.0838063  
C185     C      0.956130000000     0.453990000000     0.754800000000    -0.0857974  
C186     C      0.961120000000     0.490000000000     0.735100000000     0.0328887  
C187     C      0.962800000000     0.521090000000     0.752980000000    -0.0848501  
C188     C      0.961990000000     0.516580000000     0.789800000000     0.0676068  
C189     C      0.956780000000     0.451050000000     0.791420000000     0.0694541  
C190     C      0.966880000000     0.495230000000     0.696500000000     0.0362023  
C191     C      0.989640000000     0.477920000000     0.683230000000    -0.0915636  
C192     C      0.991560000000     0.478830000000     0.647160000000     0.0710846  
C193     C      0.953680000000     0.518060000000     0.636200000000     0.0691081  
C194     C      0.949870000000     0.516640000000     0.672590000000    -0.0859114  
C195     C      0.018560000000     0.502350000000     0.187170000000    -0.0864946  
C196     C      0.032010000000     0.475960000000     0.207210000000     0.0333488  
C197     C      0.042510000000     0.451520000000     0.189580000000    -0.0853233  
C198     C      0.039520000000     0.454030000000     0.152630000000     0.0658045  
C199     C      0.015980000000     0.504110000000     0.150550000000     0.068525   
C200     C      0.033940000000     0.474100000000     0.246280000000     0.0340023  
C201     C      0.049580000000     0.510200000000     0.262800000000    -0.0867613  
C202     C      0.043760000000     0.508220000000     0.298460000000     0.0681618  
C203     C      0.012080000000     0.435790000000     0.303220000000     0.0709644  
C204     C      0.016680000000     0.436610000000     0.267110000000    -0.0867053  
C205     C      0.728640000000     0.187690000000     0.940940000000    -0.0877499  
C206     C      0.752790000000     0.192030000000     0.912120000000     0.0328221  
C207     C      0.738550000000     0.157660000000     0.892990000000    -0.0844712  
C208     C      0.698570000000     0.120990000000     0.901610000000     0.0648656  
C209     C      0.689160000000     0.151750000000     0.948110000000     0.0670794  
C210     C      0.789520000000     0.234010000000     0.901860000000     0.0320393  
C211     C      0.779790000000     0.266390000000     0.899400000000    -0.0859199  
C212     C      0.814280000000     0.306250000000     0.902850000000     0.0687783  
C213     C      0.869050000000     0.284830000000     0.903820000000     0.0656318  
C214     C      0.834790000000     0.243620000000     0.902020000000    -0.0837868  
C215     C      0.154360000000     0.705440000000     0.062080000000    -0.0852139  
C216     C      0.182790000000     0.732700000000     0.035910000000     0.032851   
C217     C      0.175590000000     0.720400000000     0.001850000000    -0.0873784  
C218     C      0.143300000000     0.680700000000     0.994950000000     0.0660858  
C219     C      0.120730000000     0.665780000000     0.053820000000     0.0656191  
C220     C      0.225310000000     0.770320000000     0.043840000000     0.0318862  
C221     C      0.228620000000     0.809360000000     0.038360000000    -0.0846989  
C222     C      0.271080000000     0.844440000000     0.034310000000     0.0660875  
C223     C      0.306060000000     0.802720000000     0.042040000000     0.0666699  
C224     C      0.264820000000     0.767580000000     0.047500000000    -0.0858197  
C225     C      0.758330000000     0.423570000000     0.019420000000    -0.084903   
C226     C      0.754560000000     0.459240000000     0.010800000000     0.0320606  
C227     C      0.792370000000     0.496940000000     0.018600000000    -0.0846398  
C228     C      0.833480000000     0.498640000000     0.030470000000     0.066269   
C229     C      0.799410000000     0.426320000000     0.032200000000     0.0703945  
C230     C      0.712610000000     0.457220000000     0.992100000000     0.0335972  
C231     C      0.670560000000     0.421380000000     0.994820000000    -0.0840782  
C232     C      0.632220000000     0.420010000000     0.976340000000     0.0664544  
C233     C      0.675220000000     0.488740000000     0.952850000000     0.0669254  
C234     C      0.714440000000     0.490700000000     0.969850000000    -0.0870337  
C235     C      0.188850000000     0.475270000000     0.923290000000    -0.0859607  
C236     C      0.222370000000     0.513620000000     0.933910000000     0.0327581  
C237     C      0.215700000000     0.547590000000     0.924310000000    -0.0815461  
C238     C      0.174480000000     0.541880000000     0.908020000000     0.0647306  
C239     C      0.148020000000     0.470670000000     0.907540000000     0.063229   
C240     C      0.262600000000     0.516980000000     0.956130000000     0.0336153  
C241     C      0.257910000000     0.484640000000     0.981060000000    -0.0875101  
C242     C      0.295780000000     0.484250000000     0.998040000000     0.0678716  
C243     C      0.343270000000     0.550070000000     0.970750000000     0.0671462  
C244     C      0.305770000000     0.551090000000     0.952450000000    -0.0841068  
C245     C      0.764960000000     0.767210000000     0.555190000000    -0.0866609  
C246     C      0.725320000000     0.769770000000     0.550650000000     0.03261    
C247     C      0.728460000000     0.808700000000     0.544640000000    -0.0850518  
C248     C      0.770840000000     0.843810000000     0.540600000000     0.0662724  
C249     C      0.806200000000     0.802420000000     0.549860000000     0.0703961  
C250     C      0.683140000000     0.732180000000     0.542160000000     0.032922   
C251     C      0.677320000000     0.719520000000     0.508380000000    -0.0876529  
C252     C      0.644090000000     0.680310000000     0.501030000000     0.065819   
C253     C      0.618630000000     0.666530000000     0.558910000000     0.0655178  
C254     C      0.652890000000     0.705750000000     0.567590000000    -0.0854882  
C255     C      0.233940000000     0.173910000000     0.458820000000    -0.0869699  
C256     C      0.251580000000     0.185250000000     0.425470000000     0.0323966  
C257     C      0.232600000000     0.156330000000     0.400150000000    -0.0850133  
C258     C      0.193730000000     0.118460000000     0.407700000000     0.0640892  
C259     C      0.194950000000     0.136980000000     0.464960000000     0.0713606  
C260     C      0.283750000000     0.229320000000     0.416940000000     0.0329761  
C261     C      0.270670000000     0.257930000000     0.422550000000    -0.0883564  
C262     C      0.302590000000     0.298920000000     0.424510000000     0.069213   
C263     C      0.359830000000     0.285860000000     0.410220000000     0.0661804  
C264     C      0.328480000000     0.243720000000     0.409000000000    -0.0846236  
C265     C      0.620060000000     0.896590000000     0.417580000000    -0.0876048  
C266     C      0.658310000000     0.930970000000     0.403940000000     0.0302325  
C267     C      0.652820000000     0.961360000000     0.382450000000    -0.0864723  
C268     C      0.610650000000     0.959000000000     0.377760000000     0.067821   
C269     C      0.577850000000     0.894660000000     0.411430000000     0.0633849  
C270     C      0.704330000000     0.937370000000     0.414090000000     0.0317829  
C271     C      0.718650000000     0.935710000000     0.449690000000    -0.0865845  
C272     C      0.763600000000     0.946320000000     0.459000000000     0.0657954  
C273     C      0.780010000000     0.958790000000     0.398630000000     0.0664494  
C274     C      0.735590000000     0.949120000000     0.388470000000    -0.0863408  
C275     C      0.354440000000     0.076840000000     0.524410000000    -0.0877047  
C276     C      0.317170000000     0.048710000000     0.543780000000     0.0315515  
C277     C      0.322640000000     0.021860000000     0.570140000000    -0.084421   
C278     C      0.362170000000     0.019400000000     0.573190000000     0.0712212  
C279     C      0.394440000000     0.074430000000     0.529130000000     0.0619424  
C280     C      0.271090000000     0.042320000000     0.533580000000     0.0333357  
C281     C      0.241530000000     0.035350000000     0.559390000000    -0.0863447  
C282     C      0.195990000000     0.021700000000     0.550110000000     0.0680889  
C283     C      0.208220000000     0.022500000000     0.490150000000     0.0686664  
C284     C      0.254110000000     0.036600000000     0.498500000000    -0.084531   
C285     C      0.020680000000     0.714050000000     0.395520000000    -0.0843987  
C286     C      0.021170000000     0.735080000000     0.423400000000     0.0313721  
C287     C      0.013700000000     0.714910000000     0.457230000000    -0.0871953  
C288     C      0.005070000000     0.674270000000     0.462650000000     0.068952   
C289     C      0.012680000000     0.673390000000     0.401960000000     0.0636028  
C290     C      0.021890000000     0.775120000000     0.417190000000     0.0352232  
C291     C      0.061000000000     0.812270000000     0.423380000000    -0.0860661  
C292     C      0.057910000000     0.848100000000     0.424870000000     0.0643552  
C293     C      0.979020000000     0.810900000000     0.413010000000     0.0648578  
C294     C      0.981050000000     0.775190000000     0.410430000000    -0.0897819  
C295     C      0.934170000000     0.239550000000     0.542120000000    -0.086094   
C296     C      0.940250000000     0.219960000000     0.516140000000     0.0310796  
C297     C      0.953500000000     0.241240000000     0.483150000000    -0.0869966  
C298     C      0.961330000000     0.281600000000     0.476810000000     0.0647164  
C299     C      0.942090000000     0.280090000000     0.534850000000     0.0637121  
C300     C      0.940760000000     0.180610000000     0.524440000000     0.0330687  
C301     C      0.982270000000     0.181940000000     0.531370000000    -0.0891268  
C302     C      0.985290000000     0.146340000000     0.531410000000     0.0650682  
C303     C      0.906260000000     0.106800000000     0.521660000000     0.065692   
C304     C      0.902050000000     0.142430000000     0.520860000000    -0.0849397  
C305     C      0.957170000000     0.945000000000     0.693190000000    -0.0878129  
C306     C      0.925530000000     0.954030000000     0.703960000000     0.0329641  
C307     C      0.900990000000     0.966180000000     0.678250000000    -0.0861002  
C308     C      0.908570000000     0.969080000000     0.642460000000     0.0665879  
C309     C      0.964710000000     0.949220000000     0.657490000000     0.0668863  
C310     C      0.920920000000     0.953110000000     0.742130000000     0.0332111  
C311     C      0.914600000000     0.918640000000     0.764810000000    -0.0861291  
C312     C      0.918010000000     0.920620000000     0.801330000000     0.0676814  
C313     C      0.932320000000     0.989580000000     0.793330000000     0.0653576  
C314     C      0.928230000000     0.988350000000     0.756670000000    -0.0873435  
C315     C      0.004880000000     0.003150000000     0.258270000000    -0.073139   
C316     C      0.037590000000     0.995620000000     0.247410000000     0.0271428  
C317     C      0.063650000000     0.985240000000     0.273070000000    -0.0828088  
C318     C      0.056660000000     0.982830000000     0.308960000000     0.0650851  
C319     C      0.997970000000     0.999420000000     0.294050000000     0.0537291  
C320     C      0.041940000000     0.996380000000     0.209220000000     0.0343123  
C321     C      0.047560000000     0.030550000000     0.186380000000    -0.085516   
C322     C      0.044490000000     0.028490000000     0.149870000000     0.0693328  
C323     C      0.031280000000     0.959870000000     0.158240000000     0.0675115  
C324     C      0.035160000000     0.961230000000     0.194870000000    -0.0866493  
C325     C      0.705890000000     0.692720000000     0.008320000000    -0.0885075  
C326     C      0.692320000000     0.721590000000     0.994740000000     0.0327206  
C327     C      0.648610000000     0.713090000000     0.000630000000    -0.0852782  
C328     C      0.618280000000     0.674500000000     0.015890000000     0.0658043  
C329     C      0.674560000000     0.654430000000     0.022680000000     0.0677724  
C330     C      0.724070000000     0.760100000000     0.974840000000     0.031892   
C331     C      0.754980000000     0.760400000000     0.953240000000    -0.0848741  
C332     C      0.789890000000     0.797700000000     0.939990000000     0.0659926  
C333     C      0.760680000000     0.833840000000     0.964870000000     0.0654665  
C334     C      0.725630000000     0.797290000000     0.978680000000    -0.0854994  
C335     C      0.324500000000     0.239000000000     0.957600000000    -0.0849569  
C336     C      0.280830000000     0.229770000000     0.964540000000     0.0335453  
C337     C      0.267530000000     0.259500000000     0.954220000000    -0.0881016  
C338     C      0.298740000000     0.298630000000     0.941500000000     0.0683925  
C339     C      0.354870000000     0.278660000000     0.944020000000     0.0689219  
C340     C      0.248430000000     0.189580000000     0.981930000000     0.0330008  
C341     C      0.245230000000     0.152980000000     0.973730000000    -0.0868112  
C342     C      0.209020000000     0.115550000000     0.984990000000     0.0654567  
C343     C      0.181790000000     0.149370000000     0.015460000000     0.0682792  
C344     C      0.217830000000     0.187320000000     0.004960000000    -0.0854698  
C345     C      0.852140000000     0.062460000000     0.031920000000    -0.0910462  
C346     C      0.813520000000     0.028730000000     0.045890000000     0.0324589  
C347     C      0.818140000000     0.997650000000     0.066940000000    -0.0865663  
C348     C      0.859440000000     0.998360000000     0.070460000000     0.0672933  
C349     C      0.893610000000     0.062740000000     0.036950000000     0.0608843  
C350     C      0.767740000000     0.023010000000     0.035850000000     0.0320634  
C351     C      0.736330000000     0.010750000000     0.061460000000    -0.0850404  
C352     C      0.691710000000     0.000320000000     0.051280000000     0.0672157  
C353     C      0.708300000000     0.013390000000     0.990930000000     0.0663471  
C354     C      0.753410000000     0.024680000000     0.000260000000    -0.0838054  
C355     C      0.229790000000     0.929630000000     0.891250000000    -0.0844936  
C356     C      0.201930000000     0.922920000000     0.918330000000     0.0311977  
C357     C      0.221840000000     0.933290000000     0.952190000000    -0.0878022  
C358     C      0.267870000000     0.948100000000     0.958820000000     0.0664827  
C359     C      0.276120000000     0.944470000000     0.898870000000     0.0633671  
C360     C      0.152330000000     0.905640000000     0.912450000000     0.0295321  
C361     C      0.133040000000     0.921590000000     0.884930000000    -0.0843534  
C362     C      0.088480000000     0.913540000000     0.886750000000     0.0651231  
C363     C      0.081040000000     0.870880000000     0.939620000000     0.0678839  
C364     C      0.124400000000     0.877120000000     0.938120000000    -0.0868565  
C365     C      0.916320000000     0.727800000000     0.021180000000    -0.0869237  
C366     C      0.911410000000     0.710120000000     0.989570000000     0.033039   
C367     C      0.909160000000     0.731980000000     0.957680000000    -0.0872836  
C368     C      0.914890000000     0.771220000000     0.957680000000     0.0693365  
C369     C      0.923340000000     0.767840000000     0.020150000000     0.0680314  
C370     C      0.914750000000     0.672080000000     0.989350000000     0.0332941  
C371     C      0.941790000000     0.663480000000     0.015340000000    -0.0870596  
C372     C      0.951150000000     0.632080000000     0.012030000000     0.0695662  
C373     C      0.907260000000     0.616450000000     0.958040000000     0.0688733  
C374     C      0.895940000000     0.646930000000     0.961120000000    -0.0875787  
C375     C      0.056930000000     0.289990000000     0.992450000000    -0.0855594  
C376     C      0.060720000000     0.279070000000     0.959710000000     0.0323475  
C377     C      0.058950000000     0.303360000000     0.929250000000    -0.08652    
C378     C      0.050500000000     0.335660000000     0.931700000000     0.067242   
C379     C      0.049760000000     0.323180000000     0.994020000000     0.0661863  
C380     C      0.062120000000     0.240480000000     0.957310000000     0.0331603  
C381     C      0.081300000000     0.224990000000     0.985130000000    -0.0873136  
C382     C      0.074580000000     0.185210000000     0.985510000000     0.0693632  
C383     C      0.035400000000     0.177460000000     0.929440000000     0.0663882  
C384     C      0.040360000000     0.216660000000     0.928650000000    -0.0862573  
H1       H      0.022340000000     0.980520000000     0.895060000000     0.206268   
H2       H      0.952750000000     0.046920000000     0.972960000000     0.195899   
H3       H      0.898180000000     0.883000000000     0.996980000000     0.197244   
H4       H      0.070130000000     0.990220000000     0.037500000000     0.188797   
H5       H      0.933290000000     0.068250000000     0.907140000000     0.131378   
H6       H      0.866190000000     0.009920000000     0.938900000000     0.19377    
H7       H      0.832080000000     0.911540000000     0.036890000000     0.132344   
H8       H      0.897700000000     0.878630000000     0.074680000000     0.187074   
H9       H      0.056680000000     0.905360000000     0.041610000000     0.136314   
H10      H      0.145700000000     0.981080000000     0.005230000000     0.191378   
H11      H      0.130150000000     0.038550000000     0.910260000000     0.138156   
H12      H      0.038490000000     0.080000000000     0.853300000000     0.202546   
H13      H      0.929520000000     0.857690000000     0.092420000000     0.200536   
H14      H      0.149980000000     0.975250000000     0.963390000000     0.20136    
H15      H      0.076960000000     0.077240000000     0.882980000000     0.194392   
H16      H      0.848170000000     0.007330000000     0.978530000000     0.204365   
H17      H      0.875270000000     0.916290000000     0.457200000000     0.196885   
H18      H      0.030620000000     0.041960000000     0.404180000000     0.193608   
H19      H      0.002020000000     0.034000000000     0.543850000000     0.195055   
H20      H      0.033300000000     0.917530000000     0.500270000000     0.19893    
H21      H      0.967330000000     0.053230000000     0.364870000000     0.134986   
H22      H      0.999930000000     0.110350000000     0.416990000000     0.201026   
H23      H      0.089000000000     0.120290000000     0.520410000000     0.131515   
H24      H      0.086650000000     0.048620000000     0.582050000000     0.185938   
H25      H      0.003600000000     0.898350000000     0.581390000000     0.141572   
H26      H      0.973840000000     0.835320000000     0.514860000000     0.19725    
H27      H      0.872240000000     0.852080000000     0.427580000000     0.126107   
H28      H      0.886030000000     0.905090000000     0.371790000000     0.191634   
H29      H      0.087820000000     0.008810000000     0.606440000000     0.201608   
H30      H      0.938960000000     0.834790000000     0.542630000000     0.198981   
H31      H      0.867180000000     0.937620000000     0.355080000000     0.20194    
H32      H      0.050280000000     0.119160000000     0.406250000000     0.19184    
H33      H      0.952430000000     0.436970000000     0.050250000000     0.201377   
H34      H      0.909020000000     0.436640000000     0.908320000000     0.192851   
H35      H      0.028540000000     0.581070000000     0.960100000000     0.201206   
H36      H      0.079310000000     0.463580000000     0.962730000000     0.200254   
H37      H      0.837810000000     0.440280000000     0.956140000000     0.139891   
H38      H      0.866050000000     0.477220000000     0.886790000000     0.190394   
H39      H      0.025550000000     0.594890000000     0.885950000000     0.133405   
H40      H      0.128250000000     0.616020000000     0.908270000000     0.193653   
H41      H      0.164990000000     0.562560000000     0.996260000000     0.139453   
H42      H      0.120350000000     0.451000000000     0.026280000000     0.200629   
H43      H      0.963970000000     0.368370000000     0.062150000000     0.127608   
H44      H      0.885370000000     0.337190000000     0.022460000000     0.193894   
H45      H      0.166850000000     0.618040000000     0.940120000000     0.195256   
H46      H      0.115980000000     0.470270000000     0.061900000000     0.204881   
H47      H      0.841050000000     0.343520000000     0.026920000000     0.201725   
H48      H      0.874360000000     0.523360000000     0.894640000000     0.203451   
H49      H      0.904250000000     0.451140000000     0.528260000000     0.201195   
H50      H      0.928780000000     0.446570000000     0.389480000000     0.189741   
H51      H      0.050830000000     0.578570000000     0.458080000000     0.192232   
H52      H      0.044260000000     0.431650000000     0.499920000000     0.194882   
H53      H      0.850760000000     0.446970000000     0.385470000000     0.135099   
H54      H      0.916290000000     0.538160000000     0.366430000000     0.205016   
H55      H      0.076850000000     0.592510000000     0.384250000000     0.129852   
H56      H      0.141110000000     0.599860000000     0.450120000000     0.186457   
H57      H      0.111170000000     0.493090000000     0.546250000000     0.136547   
H58      H      0.047350000000     0.416140000000     0.567500000000     0.187961   
H59      H      0.882090000000     0.362900000000     0.545520000000     0.133046   
H60      H      0.823180000000     0.358950000000     0.492250000000     0.191326   
H61      H      0.171620000000     0.580110000000     0.473110000000     0.19895    
H62      H      0.011970000000     0.406390000000     0.598770000000     0.203481   
H63      H      0.792190000000     0.377500000000     0.468200000000     0.201786   
H64      H      0.927770000000     0.510670000000     0.342120000000     0.193034   
H65      H      0.470550000000     0.925660000000     0.905050000000     0.192868   
H66      H      0.441020000000     0.914670000000     0.044210000000     0.194969   
H67      H      0.595040000000     0.039750000000     0.995010000000     0.198509   
H68      H      0.438540000000     0.040620000000     0.950720000000     0.199818   
H69      H      0.450360000000     0.849930000000     0.038590000000     0.131611   
H70      H      0.543330000000     0.901390000000     0.063450000000     0.202463   
H71      H      0.593350000000     0.050850000000     0.067080000000     0.125967   
H72      H      0.601160000000     0.120470000000     0.022450000000     0.187643   
H73      H      0.538510000000     0.112340000000     0.906280000000     0.143418   
H74      H      0.417660000000     0.049840000000     0.879770000000     0.19784    
H75      H      0.390020000000     0.911680000000     0.873270000000     0.127986   
H76      H      0.360030000000     0.853500000000     0.927140000000     0.195956   
H77      H      0.591010000000     0.150830000000     0.991180000000     0.201374   
H78      H      0.463770000000     0.060330000000     0.859810000000     0.202102   
H79      H      0.384970000000     0.824270000000     0.931300000000     0.201316   
H80      H      0.517320000000     0.907350000000     0.095040000000     0.197508   
H81      H      0.389810000000     0.950950000000     0.419300000000     0.193449   
H82      H      0.457000000000     0.966170000000     0.557350000000     0.204207   
H83      H      0.525190000000     0.910720000000     0.470650000000     0.197578   
H84      H      0.561370000000     0.070470000000     0.446880000000     0.195816   
H85      H      0.348310000000     0.899270000000     0.550720000000     0.133401   
H86      H      0.427380000000     0.877060000000     0.585850000000     0.187979   
H87      H      0.582280000000     0.937150000000     0.552190000000     0.141625   
H88      H      0.604580000000     0.940700000000     0.484400000000     0.194581   
H89      H      0.620610000000     0.054180000000     0.397610000000     0.132456   
H90      H      0.549110000000     0.080550000000     0.369890000000     0.187215   
H91      H      0.406170000000     0.051230000000     0.415920000000     0.144268   
H92      H      0.353310000000     0.005690000000     0.475340000000     0.20114    
H93      H      0.645920000000     0.979590000000     0.462000000000     0.206817   
H94      H      0.506190000000     0.088720000000     0.354390000000     0.201887   
H95      H      0.332020000000     0.969770000000     0.446440000000     0.194734   
H96      H      0.469650000000     0.866360000000     0.595710000000     0.201546   
H97      H      0.414550000000     0.457190000000     0.038280000000     0.202117   
H98      H      0.428760000000     0.447440000000     0.897590000000     0.187275   
H99      H      0.559550000000     0.577980000000     0.962810000000     0.19877    
H100     H      0.544260000000     0.427190000000     0.005200000000     0.201957   
H101     H      0.344830000000     0.438750000000     0.897330000000     0.130299   
H102     H      0.427080000000     0.545600000000     0.871860000000     0.207671   
H103     H      0.584120000000     0.588500000000     0.890760000000     0.130103   
H104     H      0.665660000000     0.578170000000     0.957730000000     0.192455   
H105     H      0.614290000000     0.498640000000     0.056850000000     0.140111   
H106     H      0.547570000000     0.409820000000     0.073930000000     0.196907   
H107     H      0.384830000000     0.370410000000     0.053890000000     0.132696   
H108     H      0.305790000000     0.380420000000     0.993380000000     0.19519    
H109     H      0.680380000000     0.558480000000     0.995280000000     0.200044   
H110     H      0.525000000000     0.418510000000     0.106330000000     0.203257   
H111     H      0.292720000000     0.403900000000     0.957570000000     0.197019   
H112     H      0.431640000000     0.511890000000     0.850130000000     0.196522   
H113     H      0.447840000000     0.439120000000     0.556870000000     0.203354   
H114     H      0.397240000000     0.437800000000     0.415920000000     0.195142   
H115     H      0.522450000000     0.582680000000     0.465810000000     0.199673   
H116     H      0.568710000000     0.462650000000     0.465310000000     0.200603   
H117     H      0.303510000000     0.391820000000     0.472000000000     0.13776    
H118     H      0.351400000000     0.481140000000     0.408470000000     0.201344   
H119     H      0.516640000000     0.596340000000     0.391890000000     0.131316   
H120     H      0.618270000000     0.615260000000     0.410790000000     0.193501   
H121     H      0.658500000000     0.561940000000     0.496310000000     0.139519   
H122     H      0.611940000000     0.449820000000     0.528310000000     0.200857   
H123     H      0.456790000000     0.366080000000     0.563610000000     0.125897   
H124     H      0.369890000000     0.344260000000     0.539410000000     0.18944    
H125     H      0.658090000000     0.617280000000     0.441430000000     0.19524    
H126     H      0.610230000000     0.471560000000     0.563320000000     0.204907   
H127     H      0.322190000000     0.345510000000     0.526210000000     0.194102   
H128     H      0.373340000000     0.526800000000     0.385020000000     0.204446   
H129     H      0.565330000000     0.536620000000     0.754540000000     0.0513729  
H130     H      0.557380000000     0.533720000000     0.816580000000     0.0301557  
H131     H      0.489490000000     0.402350000000     0.823370000000     0.0238856  
H132     H      0.495890000000     0.404300000000     0.760030000000     0.0500396  
H133     H      0.545130000000     0.426120000000     0.708340000000     0.050444   
H134     H      0.540280000000     0.431860000000     0.644070000000     0.0268808  
H135     H      0.504900000000     0.526820000000     0.643210000000     0.025802   
H136     H      0.508640000000     0.521230000000     0.706590000000     0.0506949  
H137     H      0.495490000000     0.457890000000     0.209930000000     0.0509502  
H138     H      0.503740000000     0.459360000000     0.148460000000     0.0175005  
H139     H      0.449840000000     0.541630000000     0.123390000000     0.0240203  
H140     H      0.438280000000     0.538890000000     0.185780000000     0.0498572  
H141     H      0.467780000000     0.553780000000     0.244670000000     0.0500926  
H142     H      0.461670000000     0.545960000000     0.308180000000     0.0258691  
H143     H      0.435910000000     0.421910000000     0.311540000000     0.0254141  
H144     H      0.438520000000     0.427600000000     0.248450000000     0.051027   
H145     H      0.391640000000     0.714700000000     0.440470000000     0.0502828  
H146     H      0.405430000000     0.783600000000     0.436860000000     0.0280445  
H147     H      0.429850000000     0.786190000000     0.549050000000     0.0224402  
H148     H      0.412110000000     0.714920000000     0.554140000000     0.0487832  
H149     H      0.451260000000     0.683300000000     0.544810000000     0.0504967  
H150     H      0.467800000000     0.629570000000     0.539730000000     0.0281522  
H151     H      0.379960000000     0.594260000000     0.446740000000     0.0234983  
H152     H      0.359240000000     0.646200000000     0.452730000000     0.0475913  
H153     H      0.588940000000     0.242860000000     0.502240000000     0.0489621  
H154     H      0.577970000000     0.174240000000     0.502890000000     0.0256284  
H155     H      0.489580000000     0.153520000000     0.410090000000     0.0207775  
H156     H      0.497730000000     0.221080000000     0.409820000000     0.0493722  
H157     H      0.540390000000     0.292470000000     0.403230000000     0.0492483  
H158     H      0.529140000000     0.350040000000     0.408820000000     0.0274308  
H159     H      0.537200000000     0.330000000000     0.521590000000     0.0278883  
H160     H      0.546020000000     0.271000000000     0.516930000000     0.0508262  
H161     H      0.552460000000     0.062420000000     0.692650000000     0.051015   
H162     H      0.549460000000     0.059860000000     0.629330000000     0.0258817  
H163     H      0.540800000000     0.941250000000     0.644970000000     0.0219907  
H164     H      0.544500000000     0.943450000000     0.708560000000     0.0500167  
H165     H      0.489360000000     0.016930000000     0.735940000000     0.0513345  
H166     H      0.477650000000     0.011920000000     0.797830000000     0.0248747  
H167     H      0.583190000000     0.981460000000     0.825220000000     0.0257548  
H168     H      0.594990000000     0.985500000000     0.762650000000     0.0508026  
H169     H      0.377030000000     0.970680000000     0.184500000000     0.05061    
H170     H      0.390580000000     0.977350000000     0.121990000000     0.026502   
H171     H      0.498090000000     0.949490000000     0.149230000000     0.0218872  
H172     H      0.484550000000     0.941750000000     0.211040000000     0.0514551  
H173     H      0.427990000000     0.012620000000     0.239180000000     0.0521888  
H174     H      0.430730000000     0.013450000000     0.302750000000     0.0254266  
H175     H      0.420950000000     0.894380000000     0.316870000000     0.0271758  
H176     H      0.419050000000     0.893240000000     0.253280000000     0.0509452  
H177     H      0.461230000000     0.748890000000     0.909710000000     0.0514971  
H178     H      0.454950000000     0.809930000000     0.911930000000     0.0164945  
H179     H      0.596910000000     0.880470000000     0.933440000000     0.0254     
H180     H      0.604070000000     0.818450000000     0.932410000000     0.0511829  
H181     H      0.534660000000     0.730530000000     0.873350000000     0.0511196  
H182     H      0.522040000000     0.660200000000     0.885240000000     0.027841   
H183     H      0.513470000000     0.665630000000     0.995160000000     0.0277879  
H184     H      0.527880000000     0.735770000000     0.984050000000     0.0527247  
H185     H      0.435220000000     0.225800000000     0.078010000000     0.0510153  
H186     H      0.446080000000     0.295590000000     0.065980000000     0.0266468  
H187     H      0.466430000000     0.294300000000     0.957700000000     0.0277338  
H188     H      0.454480000000     0.224960000000     0.968950000000     0.0518091  
H189     H      0.372620000000     0.140270000000     0.021210000000     0.0498734  
H190     H      0.379730000000     0.078450000000     0.019680000000     0.0233058  
H191     H      0.522090000000     0.149220000000     0.039370000000     0.0234308  
H192     H      0.515830000000     0.210280000000     0.041650000000     0.0508081  
H193     H      0.713480000000     0.225310000000     0.498050000000     0.0479892  
H194     H      0.649730000000     0.160170000000     0.517070000000     0.0255143  
H195     H      0.705700000000     0.095780000000     0.474880000000     0.0270287  
H196     H      0.768490000000     0.159660000000     0.454690000000     0.0508699  
H197     H      0.834450000000     0.223150000000     0.464510000000     0.0515971  
H198     H      0.889320000000     0.288730000000     0.437740000000     0.030191   
H199     H      0.787870000000     0.324680000000     0.413070000000     0.0216701  
H200     H      0.732030000000     0.259200000000     0.438470000000     0.0490024  
H201     H      0.135210000000     0.728520000000     0.482970000000     0.05048    
H202     H      0.076240000000     0.663780000000     0.506580000000     0.0288094  
H203     H      0.169820000000     0.618380000000     0.531390000000     0.0216762  
H204     H      0.230130000000     0.683470000000     0.508930000000     0.0496045  
H205     H      0.255380000000     0.723350000000     0.451910000000     0.0479681  
H206     H      0.319940000000     0.788990000000     0.434480000000     0.0267617  
H207     H      0.264590000000     0.851950000000     0.479840000000     0.0273749  
H208     H      0.201490000000     0.787910000000     0.498490000000     0.0513642  
H209     H      0.796460000000     0.571830000000     0.435020000000     0.0491166  
H210     H      0.862220000000     0.568380000000     0.463030000000     0.026524   
H211     H      0.777870000000     0.446360000000     0.506800000000     0.0193805  
H212     H      0.711700000000     0.449460000000     0.481710000000     0.0482061  
H213     H      0.728270000000     0.572610000000     0.432170000000     0.046831   
H214     H      0.657820000000     0.565570000000     0.404350000000     0.0155639  
H215     H      0.606220000000     0.436790000000     0.400980000000     0.0258675  
H216     H      0.677060000000     0.442940000000     0.425610000000     0.0500459  
H217     H      0.246770000000     0.524980000000     0.470250000000     0.0483025  
H218     H      0.180460000000     0.522390000000     0.438960000000     0.017202   
H219     H      0.101870000000     0.396730000000     0.477060000000     0.021585   
H220     H      0.165940000000     0.399000000000     0.511850000000     0.0475835  
H221     H      0.229870000000     0.398570000000     0.519290000000     0.0474361  
H222     H      0.298590000000     0.402670000000     0.544850000000     0.0132957  
H223     H      0.360110000000     0.533390000000     0.541940000000     0.0293403  
H224     H      0.289620000000     0.530420000000     0.519740000000     0.0504984  
H225     H      0.966540000000     0.549400000000     0.738940000000     0.0502541  
H226     H      0.964720000000     0.541890000000     0.802710000000     0.0276395  
H227     H      0.954050000000     0.423030000000     0.805500000000     0.025407   
H228     H      0.952580000000     0.428260000000     0.742120000000     0.050367   
H229     H      0.005620000000     0.463100000000     0.700550000000     0.0540743  
H230     H      0.008800000000     0.464110000000     0.638340000000     0.0222756  
H231     H      0.938890000000     0.533550000000     0.618270000000     0.0233637  
H232     H      0.932400000000     0.530910000000     0.681680000000     0.0501281  
H233     H      0.053240000000     0.430860000000     0.204160000000     0.0506939  
H234     H      0.047860000000     0.434570000000     0.139940000000     0.026235   
H235     H      0.005140000000     0.524960000000     0.136410000000     0.0261249  
H236     H      0.009180000000     0.521190000000     0.199670000000     0.0510576  
H237     H      0.064780000000     0.539960000000     0.247970000000     0.0515126  
H238     H      0.055160000000     0.537070000000     0.309730000000     0.030366   
H239     H      0.996670000000     0.406160000000     0.318260000000     0.0208245  
H240     H      0.004510000000     0.407960000000     0.255330000000     0.0513435  
H241     H      0.756770000000     0.159700000000     0.870730000000     0.0502821  
H242     H      0.687070000000     0.095430000000     0.885600000000     0.0249652  
H243     H      0.671460000000     0.150870000000     0.970350000000     0.0196024  
H244     H      0.739260000000     0.212890000000     0.957240000000     0.0506361  
H245     H      0.745280000000     0.260420000000     0.898340000000     0.0515364  
H246     H      0.805000000000     0.329910000000     0.903810000000     0.0214806  
H247     H      0.903760000000     0.291210000000     0.906720000000     0.0247052  
H248     H      0.843670000000     0.219430000000     0.903790000000     0.0497926  
H249     H      0.196970000000     0.740630000000     0.981010000000     0.0514035  
H250     H      0.140240000000     0.672370000000     0.968240000000     0.0194949  
H251     H      0.100250000000     0.644710000000     0.074740000000     0.0244538  
H252     H      0.159440000000     0.713950000000     0.088900000000     0.0510839  
H253     H      0.198560000000     0.812500000000     0.034740000000     0.0505982  
H254     H      0.272360000000     0.873980000000     0.028120000000     0.0254073  
H255     H      0.335550000000     0.798760000000     0.043170000000     0.0231691  
H256     H      0.263490000000     0.737890000000     0.051420000000     0.0515311  
H257     H      0.791000000000     0.525360000000     0.014400000000     0.0483731  
H258     H      0.862470000000     0.528610000000     0.033750000000     0.0288254  
H259     H      0.800730000000     0.397820000000     0.036940000000     0.0203392  
H260     H      0.730720000000     0.393510000000     0.014440000000     0.0503576  
H261     H      0.666530000000     0.394620000000     0.011780000000     0.0482035  
H262     H      0.600390000000     0.392130000000     0.980030000000     0.0213641  
H263     H      0.678160000000     0.515660000000     0.936510000000     0.0190801  
H264     H      0.745920000000     0.518510000000     0.965230000000     0.0468641  
H265     H      0.241010000000     0.578030000000     0.930960000000     0.0466353  
H266     H      0.170090000000     0.568630000000     0.901830000000     0.0163622  
H267     H      0.122220000000     0.439990000000     0.901760000000     0.0254847  
H268     H      0.193340000000     0.448420000000     0.928280000000     0.0480685  
H269     H      0.225160000000     0.458720000000     0.986520000000     0.0474424  
H270     H      0.290650000000     0.457360000000     0.015530000000     0.0204094  
H271     H      0.376410000000     0.575480000000     0.965340000000     0.0269805  
H272     H      0.310990000000     0.577240000000     0.934040000000     0.0489514  
H273     H      0.698320000000     0.811690000000     0.540420000000     0.0507702  
H274     H      0.771910000000     0.873200000000     0.533810000000     0.0248331  
H275     H      0.835830000000     0.798580000000     0.551570000000     0.0207172  
H276     H      0.763770000000     0.737600000000     0.559610000000     0.0519409  
H277     H      0.700110000000     0.739170000000     0.488110000000     0.052361   
H278     H      0.641970000000     0.671830000000     0.474520000000     0.0199051  
H279     H      0.596550000000     0.646130000000     0.579300000000     0.0246997  
H280     H      0.656830000000     0.714600000000     0.594170000000     0.0510498  
H281     H      0.245600000000     0.164000000000     0.374100000000     0.0500233  
H282     H      0.177840000000     0.097710000000     0.386970000000     0.0227501  
H283     H      0.181110000000     0.130630000000     0.490650000000     0.0244485  
H284     H      0.248340000000     0.195000000000     0.479380000000     0.051729   
H285     H      0.236190000000     0.248140000000     0.427940000000     0.0516964  
H286     H      0.291070000000     0.319500000000     0.430850000000     0.0161248  
H287     H      0.394780000000     0.295890000000     0.406290000000     0.0264095  
H288     H      0.339720000000     0.222410000000     0.404330000000     0.0503815  
H289     H      0.681450000000     0.988200000000     0.371150000000     0.0530561  
H290     H      0.608140000000     0.984250000000     0.362450000000     0.0224553  
H291     H      0.549350000000     0.868760000000     0.423880000000     0.0199091  
H292     H      0.623040000000     0.872170000000     0.433890000000     0.0495684  
H293     H      0.695570000000     0.927450000000     0.470290000000     0.0468361  
H294     H      0.773230000000     0.944790000000     0.486900000000     0.0263347  
H295     H      0.802930000000     0.967660000000     0.377770000000     0.0230185  
H296     H      0.725810000000     0.951030000000     0.360660000000     0.0500066  
H297     H      0.294980000000     0.999900000000     0.585970000000     0.051224   
H298     H      0.363600000000     0.995480000000     0.591570000000     0.0217494  
H299     H      0.421210000000     0.094030000000     0.511600000000     0.0245277  
H300     H      0.351680000000     0.098580000000     0.504190000000     0.0496092  
H301     H      0.253320000000     0.039340000000     0.586840000000     0.0498075  
H302     H      0.174420000000     0.016210000000     0.571180000000     0.0236412  
H303     H      0.196490000000     0.017810000000     0.462740000000     0.0284681  
H304     H      0.275700000000     0.041000000000     0.477810000000     0.0484756  
H305     H      0.012920000000     0.730050000000     0.479260000000     0.0520049  
H306     H      0.998800000000     0.659910000000     0.489350000000     0.0253521  
H307     H      0.012360000000     0.658070000000     0.379640000000     0.028782   
H308     H      0.025380000000     0.728560000000     0.368840000000     0.0516533  
H309     H      0.093200000000     0.813110000000     0.428860000000     0.0503895  
H310     H      0.088300000000     0.875850000000     0.431600000000     0.023205   
H311     H      0.946120000000     0.808940000000     0.409120000000     0.0269162  
H312     H      0.950230000000     0.747040000000     0.405430000000     0.0522904  
H313     H      0.959330000000     0.227170000000     0.462660000000     0.0520013  
H314     H      0.972240000000     0.296920000000     0.450950000000     0.0273217  
H315     H      0.937430000000     0.294320000000     0.555850000000     0.0252894  
H316     H      0.924840000000     0.224170000000     0.568200000000     0.0506792  
H317     H      0.012750000000     0.210890000000     0.534670000000     0.0547994  
H318     H      0.018640000000     0.149290000000     0.535450000000     0.0282431  
H319     H      0.876180000000     0.078080000000     0.516670000000     0.0262192  
H320     H      0.869310000000     0.140480000000     0.515500000000     0.0507779  
H321     H      0.876280000000     0.973490000000     0.685770000000     0.0511412  
H322     H      0.889110000000     0.978760000000     0.623290000000     0.0258746  
H323     H      0.990070000000     0.942340000000     0.650600000000     0.0202014  
H324     H      0.977080000000     0.935890000000     0.712390000000     0.0500676  
H325     H      0.908560000000     0.890730000000     0.754370000000     0.0514146  
H326     H      0.914230000000     0.893560000000     0.817870000000     0.0270343  
H327     H      0.939750000000     0.018070000000     0.803490000000     0.0268361  
H328     H      0.933320000000     0.015620000000     0.739870000000     0.05131    
H329     H      0.089190000000     0.979050000000     0.265460000000     0.0501532  
H330     H      0.077400000000     0.974690000000     0.328120000000     0.0266481  
H331     H      0.971830000000     0.005230000000     0.300990000000     0.0252589  
H332     H      0.983800000000     0.010840000000     0.239110000000     0.046276   
H333     H      0.053010000000     0.058330000000     0.196690000000     0.0516843  
H334     H      0.047910000000     0.055330000000     0.133170000000     0.0268929  
H335     H      0.024510000000     0.931480000000     0.148250000000     0.0255335  
H336     H      0.030500000000     0.934170000000     0.211800000000     0.0517019  
H337     H      0.636880000000     0.734910000000     0.991570000000     0.0505543  
H338     H      0.583990000000     0.667980000000     0.017700000000     0.0279117  
H339     H      0.685660000000     0.631880000000     0.030590000000     0.0199946  
H340     H      0.740110000000     0.698910000000     0.006550000000     0.0489855  
H341     H      0.753610000000     0.732100000000     0.948020000000     0.0486125  
H342     H      0.815100000000     0.796740000000     0.925820000000     0.0267386  
H343     H      0.761970000000     0.862110000000     0.970220000000     0.0299554  
H344     H      0.701940000000     0.798670000000     0.994310000000     0.0496748  
H345     H      0.233410000000     0.253080000000     0.956950000000     0.0496608  
H346     H      0.287480000000     0.321290000000     0.935590000000     0.0183574  
H347     H      0.389030000000     0.285540000000     0.940930000000     0.0280043  
H348     H      0.335960000000     0.216610000000     0.964280000000     0.0503904  
H349     H      0.268590000000     0.153100000000     0.956700000000     0.0480827  
H350     H      0.206550000000     0.088080000000     0.976290000000     0.0206625  
H351     H      0.157210000000     0.149260000000     0.031210000000     0.0262878  
H352     H      0.220330000000     0.214880000000     0.013420000000     0.0493911  
H353     H      0.789260000000     0.971270000000     0.078460000000     0.0527225  
H354     H      0.861030000000     0.972320000000     0.085080000000     0.0187192  
H355     H      0.922260000000     0.087860000000     0.023980000000     0.0189077  
H356     H      0.849850000000     0.087380000000     0.015900000000     0.0492147  
H357     H      0.746080000000     0.008740000000     0.089270000000     0.0509862  
H358     H      0.668650000000     0.990940000000     0.072120000000     0.0260569  
H359     H      0.698680000000     0.014850000000     0.963030000000     0.0285613  
H360     H      0.776560000000     0.033230000000     0.979660000000     0.0468832  
H361     H      0.201870000000     0.929920000000     0.973740000000     0.0458905  
H362     H      0.281160000000     0.954970000000     0.985660000000     0.0255374  
H363     H      0.296350000000     0.948270000000     0.877350000000     0.0276244  
H364     H      0.215790000000     0.922480000000     0.864620000000     0.0499809  
H365     H      0.153360000000     0.943280000000     0.864260000000     0.0501819  
H366     H      0.076040000000     0.930050000000     0.867620000000     0.0214845  
H367     H      0.062140000000     0.852520000000     0.962300000000     0.0219702  
H368     H      0.137400000000     0.862800000000     0.959050000000     0.0504671  
H369     H      0.905860000000     0.720290000000     0.932450000000     0.0504499  
H370     H      0.914350000000     0.787160000000     0.932080000000     0.0276579  
H371     H      0.928950000000     0.781080000000     0.045050000000     0.0216668  
H372     H      0.916460000000     0.711560000000     0.046630000000     0.0484378  
H373     H      0.957950000000     0.682140000000     0.037360000000     0.0502591  
H374     H      0.973350000000     0.627640000000     0.032490000000     0.0279252  
H375     H      0.893110000000     0.598460000000     0.935370000000     0.0195144  
H376     H      0.873560000000     0.651310000000     0.940900000000     0.0476135  
H377     H      0.063130000000     0.297100000000     0.903440000000     0.0490703  
H378     H      0.048410000000     0.353030000000     0.907340000000     0.0274996  
H379     H      0.045850000000     0.329740000000     0.019840000000     0.0286846  
H380     H      0.057350000000     0.271990000000     0.016790000000     0.0506325  
H381     H      0.100100000000     0.242820000000     0.007180000000     0.0486377  
H382     H      0.088470000000     0.173830000000     0.008210000000     0.0260121  
H383     H      0.016620000000     0.159540000000     0.907370000000     0.0233367  
H384     H      0.024720000000     0.226940000000     0.906520000000     0.0497929  
N1       N      0.520960000000     0.467740000000     0.824270000000    -0.192679   
N2       N      0.522140000000     0.479700000000     0.638690000000    -0.192089   
N3       N      0.475960000000     0.499510000000     0.131210000000    -0.193382   
N4       N      0.450150000000     0.483920000000     0.314690000000    -0.192636   
N5       N      0.421220000000     0.790820000000     0.492520000000    -0.193373   
N6       N      0.426570000000     0.609040000000     0.491960000000    -0.193283   
N7       N      0.531740000000     0.158340000000     0.457250000000    -0.19408    
N8       N      0.531120000000     0.343630000000     0.465610000000    -0.193536   
N9       N      0.543600000000     0.999870000000     0.632160000000    -0.190751   
N10      N      0.529300000000     0.995990000000     0.816410000000    -0.190936   
N11      N      0.445540000000     0.964280000000     0.130750000000    -0.190601   
N12      N      0.427240000000     0.954440000000     0.314760000000    -0.190279   
N13      N      0.525310000000     0.849380000000     0.924150000000    -0.190624   
N14      N      0.516640000000     0.657260000000     0.941080000000    -0.187824   
N15      N      0.457320000000     0.300560000000     0.010970000000    -0.18857    
N16      N      0.451530000000     0.109610000000     0.027940000000    -0.190236   
N17      N      0.671780000000     0.123390000000     0.495510000000    -0.192863   
N18      N      0.843270000000     0.312460000000     0.425410000000    -0.193676   
N19      N      0.118190000000     0.635640000000     0.519230000000    -0.195313   
N20      N      0.297920000000     0.825080000000     0.457200000000    -0.193205   
N21      N      0.824680000000     0.506410000000     0.485290000000    -0.192931   
N22      N      0.625690000000     0.500250000000     0.403480000000    -0.198265   
N23      N      0.136300000000     0.459570000000     0.456030000000    -0.195392   
N24      N      0.335320000000     0.468550000000     0.543060000000    -0.194358   
N25      N      0.960790000000     0.482490000000     0.808910000000    -0.192974   
N26      N      0.972520000000     0.497570000000     0.623710000000    -0.193892   
N27      N      0.026040000000     0.479970000000     0.133240000000    -0.192572   
N28      N      0.023310000000     0.471200000000     0.318240000000    -0.193348   
N29      N      0.672900000000     0.119130000000     0.927770000000    -0.190645   
N30      N      0.858360000000     0.314990000000     0.907250000000    -0.191251   
N31      N      0.117200000000     0.652920000000     0.020970000000    -0.191243   
N32      N      0.308970000000     0.840620000000     0.033680000000    -0.190474   
N33      N      0.837540000000     0.463730000000     0.034960000000    -0.194141   
N34      N      0.634320000000     0.454020000000     0.956700000000    -0.19617    
N35      N      0.139760000000     0.503270000000     0.902340000000    -0.197612   
N36      N      0.338240000000     0.515460000000     0.991200000000    -0.193601   
N37      N      0.808890000000     0.840110000000     0.540600000000    -0.190745   
N38      N      0.615850000000     0.653310000000     0.526350000000    -0.191427   
N39      N      0.173410000000     0.110580000000     0.438940000000    -0.191288   
N40      N      0.347260000000     0.312450000000     0.420450000000    -0.192312   
N41      N      0.574060000000     0.927070000000     0.393720000000    -0.197419   
N42      N      0.794160000000     0.957720000000     0.433670000000    -0.190458   
N43      N      0.396180000000     0.043240000000     0.550920000000    -0.19516    
N44      N      0.179100000000     0.014370000000     0.515850000000    -0.19087    
N45      N      0.004220000000     0.653330000000     0.435250000000    -0.18773    
N46      N      0.016710000000     0.846570000000     0.422030000000    -0.190397   
N47      N      0.956250000000     0.301280000000     0.502560000000    -0.189945   
N48      N      0.948000000000     0.109460000000     0.524520000000    -0.19088    
N49      N      0.940890000000     0.961450000000     0.632190000000    -0.192443   
N50      N      0.928860000000     0.956430000000     0.815540000000    -0.191073   
N51      N      0.023510000000     0.989220000000     0.319350000000    -0.189161   
N52      N      0.034610000000     0.992840000000     0.135830000000    -0.191637   
N53      N      0.630180000000     0.644250000000     0.023380000000    -0.19322    
N54      N      0.794710000000     0.834130000000     0.948440000000    -0.192159   
N55      N      0.342870000000     0.308930000000     0.938870000000    -0.193587   
N56      N      0.175610000000     0.114020000000     0.003270000000    -0.192864   
N57      N      0.896030000000     0.029320000000     0.053770000000    -0.197118   
N58      N      0.677530000000     0.001210000000     0.016240000000    -0.189401   
N59      N      0.294910000000     0.952860000000     0.932620000000    -0.190273   
N60      N      0.064910000000     0.891670000000     0.915830000000    -0.193445   
N61      N      0.924290000000     0.789920000000     0.988530000000    -0.193427   
N62      N      0.935480000000     0.609730000000     0.982960000000    -0.193679   
N63      N      0.044890000000     0.344910000000     0.963780000000    -0.192532   
N64      N      0.050130000000     0.161010000000     0.958560000000    -0.193319   
O1       O      0.128520000000     0.049730000000     0.986840000000    -0.388928   
O2       O      0.102200000000     0.079280000000     0.019150000000    -0.368328   
O3       O      0.955780000000     0.995840000000     0.862590000000    -0.37381    
O4       O      0.933230000000     0.927660000000     0.871390000000    -0.376921   
O5       O      0.020020000000     0.099600000000     0.934320000000    -0.378846   
O6       O      0.042760000000     0.103900000000     0.992510000000    -0.368608   
O7       O      0.045260000000     0.915920000000     0.957770000000    -0.337073   
O8       O      0.002470000000     0.901520000000     0.908090000000    -0.357451   
O9       O      0.107240000000     0.009500000000     0.907930000000    -0.36715    
O10      O      0.135050000000     0.980240000000     0.980710000000    -0.525887   
O11      O      0.046130000000     0.070440000000     0.876330000000    -0.52411    
O12      O      0.939460000000     0.056070000000     0.888370000000    -0.34539    
O13      O      0.047070000000     0.038450000000     0.960240000000    -0.495389   
O14      O      0.012780000000     0.980310000000     0.917960000000    -0.62679    
O15      O      0.950960000000     0.849580000000     0.015720000000    -0.369065   
O16      O      0.933270000000     0.848260000000     0.956590000000    -0.375288   
O17      O      0.922530000000     0.986220000000     0.046440000000    -0.346611   
O18      O      0.969280000000     0.052210000000     0.039720000000    -0.364159   
O19      O      0.841580000000     0.898010000000     0.965070000000    -0.384292   
O20      O      0.867730000000     0.869660000000     0.931280000000    -0.366951   
O21      O      0.009600000000     0.953470000000     0.088840000000    -0.370164   
O22      O      0.033020000000     0.021880000000     0.079530000000    -0.373025   
O23      O      0.924960000000     0.876740000000     0.075280000000    -0.524806   
O24      O      0.034830000000     0.897040000000     0.059990000000    -0.345438   
O25      O      0.829720000000     0.930910000000     0.017760000000    -0.340413   
O26      O      0.865060000000     0.001290000000     0.963830000000    -0.536763   
O27      O      0.922550000000     0.910010000000     0.990810000000    -0.626206   
O28      O      0.958260000000     0.969430000000     0.032000000000    -0.459707   
O29      O      0.006660000000     0.924250000000     0.978270000000    -0.465368   
O30      O      0.961230000000     0.025900000000     0.972810000000    -0.626925   
O31      O      0.045650000000     0.984590000000     0.019950000000    -0.626363   
O32      O      0.924250000000     0.965380000000     0.931350000000    -0.498627   
O33      O      0.972570000000     0.867620000000     0.442730000000    -0.380723   
O34      O      0.045280000000     0.914590000000     0.433000000000    -0.370266   
O35      O      0.863320000000     0.971210000000     0.418360000000    -0.37331    
O36      O      0.850880000000     0.967910000000     0.476130000000    -0.367158   
O37      O      0.979520000000     0.985650000000     0.361780000000    -0.385613   
O38      O      0.043700000000     0.982390000000     0.378240000000    -0.372061   
O39      O      0.874970000000     0.862570000000     0.515190000000    -0.374473   
O40      O      0.855230000000     0.909310000000     0.526970000000    -0.361715   
O41      O      0.878750000000     0.838040000000     0.449280000000    -0.337273   
O42      O      0.953720000000     0.844660000000     0.520580000000    -0.530458   
O43      O      0.886710000000     0.931140000000     0.371650000000    -0.524649   
O44      O      0.937380000000     0.038020000000     0.374980000000    -0.346236   
O45      O      0.970600000000     0.937240000000     0.428730000000    -0.497751   
O46      O      0.906930000000     0.934490000000     0.461970000000    -0.633276   
O47      O      0.985540000000     0.965310000000     0.590130000000    -0.382796   
O48      O      0.923450000000     0.972040000000     0.573360000000    -0.373178   
O49      O      0.107190000000     0.085520000000     0.464620000000    -0.367436   
O50      O      0.113820000000     0.046930000000     0.427040000000    -0.362161   
O51      O      0.992940000000     0.088500000000     0.505270000000    -0.386132   
O52      O      0.921380000000     0.040680000000     0.517410000000    -0.363955   
O53      O      0.108730000000     0.996460000000     0.531960000000    -0.367156   
O54      O      0.118890000000     0.991990000000     0.475260000000    -0.367152   
O55      O      0.077660000000     0.019720000000     0.585350000000    -0.520556   
O56      O      0.034350000000     0.916740000000     0.573370000000    -0.358621   
O57      O      0.079210000000     0.127690000000     0.496570000000    -0.329423   
O58      O      0.025540000000     0.105780000000     0.421690000000    -0.530982   
O59      O      0.997700000000     0.018320000000     0.524230000000    -0.631965   
O60      O      0.060680000000     0.019700000000     0.490420000000    -0.48939    
O61      O      0.952510000000     0.932690000000     0.527370000000    -0.498515   
O62      O      0.016270000000     0.023620000000     0.424450000000    -0.626317   
O63      O      0.018750000000     0.934140000000     0.494140000000    -0.628286   
O64      O      0.950500000000     0.021670000000     0.458280000000    -0.494933   
O65      O      0.035450000000     0.387200000000     0.996030000000    -0.373784   
O66      O      0.021210000000     0.389120000000     0.936550000000    -0.367081   
O67      O      0.880480000000     0.433040000000     0.033830000000    -0.388601   
O68      O      0.914990000000     0.501300000000     0.034920000000    -0.352632   
O69      O      0.875360000000     0.365790000000     0.941890000000    -0.378941   
O70      O      0.930530000000     0.369580000000     0.910970000000    -0.364258   
O71      O      0.030230000000     0.457630000000     0.081380000000    -0.379467   
O72      O      0.007240000000     0.505200000000     0.080460000000    -0.38459    
O73      O      0.996220000000     0.376730000000     0.061370000000    -0.338894   
O74      O      0.102700000000     0.456790000000     0.040420000000    -0.525525   
O75      O      0.870280000000     0.353480000000     0.017900000000    -0.526781   
O76      O      0.831920000000     0.411730000000     0.962460000000    -0.351317   
O77      O      0.966040000000     0.406710000000     0.978650000000    -0.500472   
O78      O      0.963820000000     0.448420000000     0.027160000000    -0.632835   
O79      O      0.101300000000     0.601030000000     0.987790000000    -0.387416   
O80      O      0.055520000000     0.588620000000     0.031660000000    -0.359794   
O81      O      0.961090000000     0.506770000000     0.860780000000    -0.376033   
O82      O      0.973540000000     0.452480000000     0.861480000000    -0.376717   
O83      O      0.940480000000     0.565640000000     0.949270000000    -0.371472   
O84      O      0.969030000000     0.572250000000     0.006080000000    -0.374135   
O85      O      0.087310000000     0.524920000000     0.899790000000    -0.361649   
O86      O      0.064010000000     0.459690000000     0.894600000000    -0.357915   
O87      O      0.136530000000     0.604120000000     0.929730000000    -0.52262    
O88      O      0.147570000000     0.537190000000     0.983870000000    -0.363134   
O89      O      0.993540000000     0.587510000000     0.886560000000    -0.346066   
O90      O      0.885150000000     0.503780000000     0.895730000000    -0.529334   
O91      O      0.019780000000     0.552250000000     0.962830000000    -0.631567   
O92      O      0.021340000000     0.510430000000     0.914580000000    -0.469698   
O93      O      0.054260000000     0.511160000000     0.014810000000    -0.49581    
O94      O      0.932090000000     0.449090000000     0.926710000000    -0.63134    
O95      O      0.054970000000     0.468880000000     0.965550000000    -0.623865   
O96      O      0.931160000000     0.489930000000     0.976180000000    -0.496492   
O97      O      0.960300000000     0.359200000000     0.520710000000    -0.371927   
O98      O      0.977260000000     0.359490000000     0.464850000000    -0.358191   
O99      O      0.851950000000     0.462310000000     0.487500000000    -0.384762   
O100     O      0.900970000000     0.529190000000     0.493530000000    -0.362843   
O101     O      0.863300000000     0.380130000000     0.419590000000    -0.389349   
O102     O      0.917590000000     0.361830000000     0.424480000000    -0.361264   
O103     O      0.975710000000     0.463700000000     0.580170000000    -0.378817   
O104     O      0.965080000000     0.519050000000     0.565450000000    -0.379531   
O105     O      0.905140000000     0.378450000000     0.563810000000    -0.349584   
O106     O      0.019890000000     0.414020000000     0.574430000000    -0.525345   
O107     O      0.821240000000     0.380080000000     0.476110000000    -0.519814   
O108     O      0.845270000000     0.455430000000     0.407120000000    -0.347432   
O109     O      0.932170000000     0.406190000000     0.476120000000    -0.503639   
O110     O      0.925310000000     0.457660000000     0.510490000000    -0.628912   
O111     O      0.091510000000     0.566400000000     0.526520000000    -0.373446   
O112     O      0.042550000000     0.590610000000     0.518710000000    -0.362818   
O113     O      0.013600000000     0.502820000000     0.360770000000    -0.373539   
O114     O      0.000120000000     0.436980000000     0.372600000000    -0.379206   
O115     O      0.998440000000     0.595050000000     0.415950000000    -0.370164   
O116     O      0.985920000000     0.595630000000     0.472970000000    -0.358789   
O117     O      0.098080000000     0.494550000000     0.437380000000    -0.361291   
O118     O      0.060600000000     0.426800000000     0.439760000000    -0.366769   
O119     O      0.142720000000     0.577890000000     0.465230000000    -0.528313   
O120     O      0.123540000000     0.498620000000     0.522750000000    -0.361666   
O121     O      0.048070000000     0.584840000000     0.370300000000    -0.331862   
O122     O      0.933790000000     0.525190000000     0.362900000000    -0.531854   
O123     O      0.030820000000     0.549380000000     0.461130000000    -0.627232   
O124     O      0.036350000000     0.497050000000     0.427940000000    -0.4704     
O125     O      0.018790000000     0.498590000000     0.523990000000    -0.483095   
O126     O      0.943220000000     0.456190000000     0.412120000000    -0.625122   
O127     O      0.027110000000     0.445480000000     0.491420000000    -0.626205   
O128     O      0.935520000000     0.509970000000     0.446120000000    -0.493774   
O129     O      0.363970000000     0.967010000000     0.915860000000    -0.369542   
O130     O      0.354460000000     0.969470000000     0.973250000000    -0.368168   
O131     O      0.480170000000     0.869040000000     0.945040000000    -0.382087   
O132     O      0.550770000000     0.918150000000     0.931170000000    -0.361465   
O133     O      0.374840000000     0.863570000000     0.007850000000    -0.37938    
O134     O      0.356680000000     0.910150000000     0.022880000000    -0.360626   
O135     O      0.485250000000     0.992580000000     0.858930000000    -0.375099   
O136     O      0.548490000000     0.987660000000     0.875440000000    -0.370877   
O137     O      0.392850000000     0.938770000000     0.864500000000    -0.336124   
O138     O      0.440880000000     0.043250000000     0.876290000000    -0.528186   
O139     O      0.384380000000     0.848460000000     0.936730000000    -0.529532   
O140     O      0.446140000000     0.840780000000     0.014630000000    -0.340247   
O141     O      0.409860000000     0.937920000000     0.958560000000    -0.497273   
O142     O      0.474570000000     0.941100000000     0.924780000000    -0.62805    
O143     O      0.604620000000     0.094360000000     0.949740000000    -0.386445   
O144     O      0.618790000000     0.050650000000     0.924390000000    -0.356266   
O145     O      0.490420000000     0.969150000000     0.088330000000    -0.378031   
O146     O      0.426330000000     0.972580000000     0.071750000000    -0.369199   
O147     O      0.607690000000     0.985900000000     0.031520000000    -0.375877   
O148     O      0.620900000000     0.990720000000     0.973660000000    -0.367287   
O149     O      0.496750000000     0.089250000000     0.007920000000    -0.373506   
O150     O      0.424490000000     0.041480000000     0.017920000000    -0.367775   
O151     O      0.585030000000     0.123730000000     0.000980000000    -0.515017   
O152     O      0.519510000000     0.109750000000     0.925230000000    -0.358828   
O153     O      0.584200000000     0.023490000000     0.079790000000    -0.334733   
O154     O      0.530790000000     0.916320000000     0.072450000000    -0.533654   
O155     O      0.563650000000     0.022200000000     0.988830000000    -0.633413   
O156     O      0.499990000000     0.019060000000     0.022500000000    -0.494309   
O157     O      0.519820000000     0.026890000000     0.922900000000    -0.493915   
O158     O      0.454770000000     0.933270000000     0.023910000000    -0.633229   
O159     O      0.452850000000     0.023770000000     0.956570000000    -0.629347   
O160     O      0.520620000000     0.936130000000     0.990170000000    -0.493836   
O161     O      0.499950000000     0.095990000000     0.434270000000    -0.380049   
O162     O      0.533510000000     0.104020000000     0.489590000000    -0.369759   
O163     O      0.343980000000     0.888460000000     0.475010000000    -0.384563   
O164     O      0.368930000000     0.864200000000     0.436280000000    -0.367164   
O165     O      0.407440000000     0.990200000000     0.545100000000    -0.389666   
O166     O      0.463310000000     0.053590000000     0.532110000000    -0.355156   
O167     O      0.447840000000     0.992890000000     0.362110000000    -0.369332   
O168     O      0.431270000000     0.926030000000     0.371050000000    -0.372182   
O169     O      0.409160000000     0.037170000000     0.396960000000    -0.355493   
O170     O      0.518540000000     0.074970000000     0.371320000000    -0.521273   
O171     O      0.352200000000     0.982230000000     0.466400000000    -0.531628   
O172     O      0.337590000000     0.915000000000     0.533440000000    -0.32942    
O173     O      0.453020000000     0.021550000000     0.475460000000    -0.494344   
O174     O      0.416500000000     0.959280000000     0.434930000000    -0.630863   
O175     O      0.542220000000     0.967050000000     0.397120000000    -0.351653   
O176     O      0.500060000000     0.900750000000     0.406930000000    -0.361672   
O177     O      0.523960000000     0.960990000000     0.584930000000    -0.37649    
O178     O      0.535710000000     0.026550000000     0.576020000000    -0.377536   
O179     O      0.454530000000     0.853140000000     0.516260000000    -0.367136   
O180     O      0.434080000000     0.848610000000     0.457740000000    -0.372471   
O181     O      0.625460000000     0.060540000000     0.476690000000    -0.384365   
O182     O      0.598890000000     0.086130000000     0.512930000000    -0.366517   
O183     O      0.615630000000     0.966330000000     0.469850000000    -0.535545   
O184     O      0.631180000000     0.038330000000     0.414880000000    -0.342188   
O185     O      0.556850000000     0.910890000000     0.544830000000    -0.364749   
O186     O      0.456190000000     0.880610000000     0.580690000000    -0.518758   
O187     O      0.514620000000     0.930050000000     0.472070000000    -0.625465   
O188     O      0.550610000000     0.992660000000     0.512110000000    -0.500101   
O189     O      0.503980000000     0.982940000000     0.414650000000    -0.464073   
O190     O      0.463590000000     0.968750000000     0.532990000000    -0.631828   
O191     O      0.539100000000     0.042820000000     0.454170000000    -0.628148   
O192     O      0.429030000000     0.909670000000     0.493000000000    -0.493007   
O193     O      0.463440000000     0.359450000000     0.029460000000    -0.366494   
O194     O      0.474930000000     0.357570000000     0.972470000000    -0.359036   
O195     O      0.365540000000     0.471010000000     0.001920000000    -0.386795   
O196     O      0.414700000000     0.538110000000     0.000350000000    -0.357021   
O197     O      0.363780000000     0.374200000000     0.948320000000    -0.383901   
O198     O      0.415550000000     0.360360000000     0.930360000000    -0.363757   
O199     O      0.479690000000     0.465050000000     0.088160000000    -0.379109   
O200     O      0.475280000000     0.523610000000     0.072820000000    -0.379372   
O201     O      0.410230000000     0.379970000000     0.071890000000    -0.34515    
O202     O      0.526270000000     0.416740000000     0.081530000000    -0.527779   
O203     O      0.315060000000     0.400640000000     0.973340000000    -0.514486   
O204     O      0.360930000000     0.463850000000     0.910210000000    -0.35523    
O205     O      0.434050000000     0.408380000000     0.984610000000    -0.496877   
O206     O      0.433640000000     0.462760000000     0.019240000000    -0.623305   
O207     O      0.610000000000     0.579250000000     0.013630000000    -0.386366   
O208     O      0.556320000000     0.594020000000     0.025910000000    -0.36512    
O209     O      0.515010000000     0.500950000000     0.867300000000    -0.375723   
O210     O      0.497260000000     0.433970000000     0.878840000000    -0.378285   
O211     O      0.507400000000     0.597250000000     0.922340000000    -0.366644   
O212     O      0.499820000000     0.600640000000     0.979960000000    -0.357823   
O213     O      0.596210000000     0.489530000000     0.940070000000    -0.357559   
O214     O      0.557740000000     0.421930000000     0.943720000000    -0.365409   
O215     O      0.657320000000     0.559100000000     0.978560000000    -0.519758   
O216     O      0.615080000000     0.487040000000     0.035240000000    -0.367737   
O217     O      0.555570000000     0.583710000000     0.877590000000    -0.333674   
O218     O      0.440730000000     0.528790000000     0.869710000000    -0.525459   
O219     O      0.538870000000     0.549130000000     0.967240000000    -0.633026   
O220     O      0.538840000000     0.494180000000     0.933860000000    -0.465365   
O221     O      0.527110000000     0.499750000000     0.031520000000    -0.494374   
O222     O      0.444770000000     0.457290000000     0.919780000000    -0.623217   
O223     O      0.528460000000     0.442430000000     0.997450000000    -0.629268   
O224     O      0.444020000000     0.514800000000     0.954530000000    -0.490037   
O225     O      0.525170000000     0.386910000000     0.499140000000    -0.376002   
O226     O      0.507820000000     0.388560000000     0.440100000000    -0.371407   
O227     O      0.378710000000     0.437950000000     0.544060000000    -0.387551   
O228     O      0.412740000000     0.505950000000     0.544510000000    -0.351966   
O229     O      0.366440000000     0.365050000000     0.453730000000    -0.388267   
O230     O      0.417820000000     0.369660000000     0.418070000000    -0.365365   
O231     O      0.524680000000     0.457740000000     0.586110000000    -0.378955   
O232     O      0.504250000000     0.506890000000     0.586500000000    -0.383757   
O233     O      0.489840000000     0.377330000000     0.565660000000    -0.335316   
O234     O      0.595540000000     0.456930000000     0.542580000000    -0.525159   
O235     O      0.354490000000     0.357670000000     0.525860000000    -0.523019   
O236     O      0.326970000000     0.420940000000     0.468650000000    -0.359884   
O237     O      0.456110000000     0.407960000000     0.484600000000    -0.498713   
O238     O      0.457910000000     0.450480000000     0.533440000000    -0.630983   
O239     O      0.596340000000     0.601220000000     0.492180000000    -0.388123   
O240     O      0.552600000000     0.590180000000     0.537130000000    -0.363724   
O241     O      0.452180000000     0.509220000000     0.366700000000    -0.373373   
O242     O      0.459510000000     0.452150000000     0.367290000000    -0.37762    
O243     O      0.431110000000     0.565400000000     0.457590000000    -0.364763   
O244     O      0.464220000000     0.574520000000     0.513040000000    -0.3722     
O245     O      0.574990000000     0.523670000000     0.402790000000    -0.360804   
O246     O      0.549540000000     0.458180000000     0.397150000000    -0.358745   
O247     O      0.627320000000     0.603490000000     0.431930000000    -0.523376   
O248     O      0.639210000000     0.535860000000     0.485280000000    -0.363096   
O249     O      0.485420000000     0.590210000000     0.394650000000    -0.347267   
O250     O      0.377180000000     0.507090000000     0.401800000000    -0.527342   
O251     O      0.512960000000     0.553690000000     0.468360000000    -0.6315     
O252     O      0.511140000000     0.510760000000     0.419520000000    -0.473643   
O253     O      0.548200000000     0.511930000000     0.519090000000    -0.49666    
O254     O      0.421260000000     0.450470000000     0.433620000000    -0.630757   
O255     O      0.545100000000     0.468590000000     0.469060000000    -0.624827   
O256     O      0.424880000000     0.493030000000     0.483680000000    -0.487402   
Zr1      Zr     0.069300000000     0.987600000000     0.963150000000     1.35833    
Zr2      Zr     0.988270000000     0.029630000000     0.917220000000     1.37403    
Zr3      Zr     0.981580000000     0.919600000000     0.033980000000     1.37366    
Zr4      Zr     0.900000000000     0.960670000000     0.988380000000     1.35764    
Zr5      Zr     0.021040000000     0.034690000000     0.016430000000     1.37528    
Zr6      Zr     0.948970000000     0.915780000000     0.933810000000     1.36742    
Zr7      Zr     0.940860000000     0.893090000000     0.480180000000     1.38311    
Zr8      Zr     0.938240000000     0.980510000000     0.411790000000     1.37761    
Zr9      Zr     0.030090000000     0.974900000000     0.540770000000     1.38421    
Zr10     Zr     0.028380000000     0.062100000000     0.472690000000     1.38404    
Zr11     Zr     0.048840000000     0.979950000000     0.442600000000     1.36018    
Zr12     Zr     0.919360000000     0.975650000000     0.509130000000     1.36275    
Zr13     Zr     0.026100000000     0.438910000000     0.021440000000     1.38559    
Zr14     Zr     0.904990000000     0.418410000000     0.983140000000     1.38486    
Zr15     Zr     0.081020000000     0.540550000000     0.957940000000     1.36955    
Zr16     Zr     0.959640000000     0.521200000000     0.920720000000     1.37761    
Zr17     Zr     0.994060000000     0.437760000000     0.922090000000     1.36678    
Zr18     Zr     0.991270000000     0.520930000000     0.019230000000     1.36854    
Zr19     Zr     0.970540000000     0.426720000000     0.530960000000     1.38095    
Zr20     Zr     0.888790000000     0.438100000000     0.454070000000     1.38614    
Zr21     Zr     0.074580000000     0.517640000000     0.483350000000     1.37212    
Zr22     Zr     0.991890000000     0.528380000000     0.406310000000     1.37118    
Zr23     Zr     0.987790000000     0.424430000000     0.435370000000     1.36483    
Zr24     Zr     0.973870000000     0.530170000000     0.501930000000     1.36442    
Zr25     Zr     0.442030000000     0.984460000000     0.908920000000     1.37671    
Zr26     Zr     0.442770000000     0.895530000000     0.975160000000     1.38879    
Zr27     Zr     0.530280000000     0.064200000000     0.971720000000     1.38459    
Zr28     Zr     0.532140000000     0.975290000000     0.038080000000     1.38059    
Zr29     Zr     0.421980000000     0.976860000000     0.007180000000     1.36071    
Zr30     Zr     0.552940000000     0.983490000000     0.940030000000     1.35471    
Zr31     Zr     0.473080000000     0.026630000000     0.417130000000     1.37957    
Zr32     Zr     0.399110000000     0.954270000000     0.494320000000     1.38449    
Zr33     Zr     0.568660000000     0.997750000000     0.452850000000     1.36426    
Zr34     Zr     0.494550000000     0.925240000000     0.530430000000     1.37095    
Zr35     Zr     0.518640000000     0.036640000000     0.513260000000     1.36867    
Zr36     Zr     0.448400000000     0.915310000000     0.433780000000     1.37245    
Zr37     Zr     0.475410000000     0.428200000000     0.038790000000     1.38132    
Zr38     Zr     0.393920000000     0.443740000000     0.963410000000     1.37615    
Zr39     Zr     0.579030000000     0.513680000000     0.989000000000     1.37109    
Zr40     Zr     0.497350000000     0.528900000000     0.913270000000     1.37693    
Zr41     Zr     0.486470000000     0.422290000000     0.942090000000     1.3636     
Zr42     Zr     0.485390000000     0.534700000000     0.009470000000     1.36251    
Zr43     Zr     0.518560000000     0.439470000000     0.525690000000     1.38104    
Zr44     Zr     0.396660000000     0.421360000000     0.490990000000     1.38127    
Zr45     Zr     0.572660000000     0.540510000000     0.461530000000     1.36838    
Zr46     Zr     0.451040000000     0.522940000000     0.427260000000     1.38355    
Zr47     Zr     0.481930000000     0.437940000000     0.427300000000     1.37593    
Zr48     Zr     0.486810000000     0.523270000000     0.525630000000     1.37406    


