data_structure

_audit_creation_method RASPA-1.0
_audit_creation_date 2023-6-4
_audit_author_name 'Poobodin Mano'

_cell_length_a    42.5735
_cell_length_b    46.0638
_cell_length_c    47.0372
_cell_angle_alpha 82.7745
_cell_angle_beta  96.3138
_cell_angle_gamma 119.435
_cell_volume      79575.1

_symmetry_cell_setting          triclinic
_symmetry_space_group_name_Hall 'P 1'
_symmetry_space_group_name_H-M  'P 1'
_symmetry_Int_Tables_number     1

_symmetry_equiv_pos_as_xyz 'x,y,z'

loop_
_atom_site_label
_atom_site_type_symbol
_atom_site_fract_x
_atom_site_fract_y
_atom_site_fract_z
_atom_site_charge
C1       C      0.107090000000     0.063170000000     0.003360000000     0.39787    
C2       C      0.946880000000     0.968950000000     0.875090000000     0.395156   
C3       C      0.029420000000     0.099490000000     0.964630000000     0.404685   
C4       C      0.030970000000     0.935580000000     0.915230000000     0.399184   
C5       C      0.946030000000     0.863100000000     0.984640000000     0.399901   
C6       C      0.943830000000     0.019630000000     0.037960000000     0.373667   
C7       C      0.866060000000     0.893340000000     0.952840000000     0.393114   
C8       C      0.017800000000     0.991350000000     0.076890000000     0.39971    
C9       C      0.012470000000     0.902640000000     0.443340000000     0.399868   
C10      C      0.867740000000     0.973000000000     0.454430000000     0.394514   
C11      C      0.004030000000     0.983590000000     0.377130000000     0.400366   
C12      C      0.875480000000     0.894150000000     0.517820000000     0.389947   
C13      C      0.964690000000     0.975980000000     0.576880000000     0.394704   
C14      C      0.099550000000     0.067800000000     0.445420000000     0.397794   
C15      C      0.960470000000     0.061410000000     0.513630000000     0.394675   
C16      C      0.106800000000     0.000530000000     0.497840000000     0.400017   
C17      C      0.012640000000     0.389590000000     0.974030000000     0.402307   
C18      C      0.895640000000     0.473070000000     0.032780000000     0.398064   
C19      C      0.900760000000     0.378780000000     0.932290000000     0.393764   
C20      C      0.009200000000     0.481380000000     0.079660000000     0.405936   
C21      C      0.072710000000     0.580500000000     0.020810000000     0.395558   
C22      C      0.968950000000     0.480990000000     0.874260000000     0.401256   
C23      C      0.961760000000     0.570200000000     0.980310000000     0.404389   
C24      C      0.071970000000     0.490350000000     0.918130000000     0.385386   
C25      C      0.963690000000     0.367580000000     0.496020000000     0.390587   
C26      C      0.890560000000     0.506480000000     0.498320000000     0.400262   
C27      C      0.892360000000     0.377920000000     0.438050000000     0.401197   
C28      C      0.969330000000     0.489900000000     0.574180000000     0.398516   
C29      C      0.068810000000     0.578780000000     0.520580000000     0.395009   
C30      C      0.998240000000     0.472370000000     0.378550000000     0.388218   
C31      C      0.996450000000     0.592240000000     0.454850000000     0.384418   
C32      C      0.069990000000     0.465480000000     0.446210000000     0.381286   
C33      C      0.359690000000     0.957400000000     0.949950000000     0.39645    
C34      C      0.514170000000     0.903680000000     0.940620000000     0.396807   
C35      C      0.372770000000     0.891800000000     0.011040000000     0.393757   
C36      C      0.504740000000     0.986630000000     0.872630000000     0.39198    
C37      C      0.590910000000     0.071320000000     0.931120000000     0.390303   
C38      C      0.461150000000     0.977100000000     0.072140000000     0.391481   
C39      C      0.602390000000     0.995030000000     0.996170000000     0.393832   
C40      C      0.451860000000     0.059280000000     0.004820000000     0.394314   
C41      C      0.501270000000     0.089340000000     0.463340000000     0.405621   
C42      C      0.359770000000     0.885860000000     0.449780000000     0.40212    
C43      C      0.430210000000     0.020100000000     0.531560000000     0.395735   
C44      C      0.440360000000     0.961960000000     0.371900000000     0.397838   
C45      C      0.522640000000     0.939970000000     0.409190000000     0.37533    
C46      C      0.517670000000     0.991460000000     0.572480000000     0.391658   
C47      C      0.439050000000     0.858920000000     0.484920000000     0.40333    
C48      C      0.596590000000     0.066410000000     0.494820000000     0.395793   
C49      C      0.468840000000     0.368510000000     0.002150000000     0.391441   
C50      C      0.398680000000     0.505890000000     0.008810000000     0.394813   
C51      C      0.395080000000     0.377830000000     0.948310000000     0.401502   
C52      C      0.483590000000     0.494540000000     0.080760000000     0.399829   
C53      C      0.578580000000     0.581420000000     0.022470000000     0.397505   
C54      C      0.494170000000     0.469740000000     0.882790000000     0.40066    
C55      C      0.502590000000     0.593460000000     0.960650000000     0.388907   
C56      C      0.571860000000     0.461490000000     0.949970000000     0.382117   
C57      C      0.508470000000     0.393880000000     0.478400000000     0.399468   
C58      C      0.392910000000     0.480560000000     0.534920000000     0.398446   
C59      C      0.395990000000     0.378480000000     0.441100000000     0.39221    
C60      C      0.504760000000     0.487230000000     0.582130000000     0.395254   
C61      C      0.568410000000     0.588440000000     0.518370000000     0.394038   
C62      C      0.460180000000     0.481170000000     0.377220000000     0.402102   
C63      C      0.448630000000     0.568820000000     0.482280000000     0.403853   
C64      C      0.563690000000     0.492520000000     0.419200000000     0.38093    
C65      C      0.502460000000     0.443140000000     0.813870000000    -0.105585   
C66      C      0.501450000000     0.506930000000     0.625630000000     0.0697065  
C67      C      0.515520000000     0.462890000000     0.627410000000     0.0679128  
C68      C      0.500920000000     0.503810000000     0.655470000000    -0.0933133  
C69      C      0.475540000000     0.475070000000     0.714970000000    -0.0366261  
C70      C      0.472910000000     0.471430000000     0.744600000000    -0.0347627  
C71      C      0.503790000000     0.473950000000     0.703150000000    -0.00667131 
C72      C      0.515220000000     0.459120000000     0.657310000000    -0.0931559  
C73      C      0.498450000000     0.466590000000     0.763130000000    -0.00985287 
C74      C      0.492440000000     0.490480000000     0.805330000000    -0.097958   
C75      C      0.526000000000     0.464260000000     0.751390000000    -0.0344789  
C76      C      0.491830000000     0.490810000000     0.834690000000     0.0716859  
C77      C      0.501690000000     0.443830000000     0.843600000000     0.101243   
C78      C      0.528660000000     0.467930000000     0.721620000000    -0.0364144  
C79      C      0.507070000000     0.479220000000     0.671630000000     0.0482419  
C80      C      0.497570000000     0.466430000000     0.794540000000     0.0551508  
C81      C      0.482700000000     0.477250000000     0.159300000000    -0.107887   
C82      C      0.448310000000     0.505060000000     0.332080000000     0.0707698  
C83      C      0.460820000000     0.460060000000     0.333680000000     0.0719204  
C84      C      0.446050000000     0.507310000000     0.302120000000    -0.0940438  
C85      C      0.468850000000     0.520420000000     0.240570000000    -0.0360248  
C86      C      0.472630000000     0.523100000000     0.211050000000    -0.0346926  
C87      C      0.451580000000     0.488770000000     0.255870000000    -0.00695082 
C88      C      0.458750000000     0.461640000000     0.303800000000    -0.0932849  
C89      C      0.459370000000     0.494200000000     0.196450000000    -0.00993563 
C90      C      0.462720000000     0.517710000000     0.145040000000    -0.09687    
C91      C      0.440390000000     0.462680000000     0.211420000000    -0.0350117  
C92      C      0.469830000000     0.517760000000     0.116710000000     0.0711504  
C93      C      0.490330000000     0.478180000000     0.130990000000     0.106071   
C94      C      0.436440000000     0.459990000000     0.240790000000    -0.0363462  
C95      C      0.451620000000     0.485660000000     0.287630000000     0.0492986  
C96      C      0.468040000000     0.496410000000     0.166420000000     0.0559636  
C97      C      0.411800000000     0.627600000000     0.465470000000    -0.106849   
C98      C      0.412310000000     0.805830000000     0.465960000000     0.0719651  
C99      C      0.425930000000     0.809860000000     0.516050000000     0.0721271  
C100     C      0.402310000000     0.772000000000     0.469240000000    -0.0948651  
C101     C      0.377120000000     0.698130000000     0.482510000000    -0.0368754  
C102     C      0.379400000000     0.669070000000     0.481370000000    -0.0352679  
C103     C      0.402790000000     0.723650000000     0.499240000000    -0.00736998 
C104     C      0.415890000000     0.776010000000     0.520130000000    -0.0953574  
C105     C      0.407340000000     0.665130000000     0.496980000000    -0.0104807  
C106     C      0.425180000000     0.622220000000     0.516110000000    -0.099764   
C107     C      0.431660000000     0.689850000000     0.514930000000    -0.0344401  
C108     C      0.436600000000     0.599810000000     0.511570000000     0.0715876  
C109     C      0.423020000000     0.604540000000     0.461310000000     0.100842   
C110     C      0.429390000000     0.718740000000     0.516070000000    -0.0361501  
C111     C      0.405330000000     0.757040000000     0.496420000000     0.0497365  
C112     C      0.413540000000     0.637090000000     0.492910000000     0.0552277  
C113     C      0.486110000000     0.161900000000     0.449030000000    -0.107755   
C114     C      0.523100000000     0.362640000000     0.451230000000     0.0712123  
C115     C      0.516240000000     0.348500000000     0.501260000000     0.0695725  
C116     C      0.528560000000     0.335740000000     0.448810000000    -0.0945653  
C117     C      0.540600000000     0.267860000000     0.491780000000    -0.0365668  
C118     C      0.538270000000     0.236980000000     0.489360000000    -0.0346993  
C119     C      0.526390000000     0.282180000000     0.469560000000    -0.00686273 
C120     C      0.520440000000     0.320610000000     0.499430000000    -0.0929577  
C121     C      0.522290000000     0.220060000000     0.464430000000    -0.00993689 
C122     C      0.543090000000     0.177450000000     0.475380000000    -0.0977862  
C123     C      0.509440000000     0.235050000000     0.441770000000    -0.0349241  
C124     C      0.536770000000     0.144890000000     0.475150000000     0.0736292  
C125     C      0.480620000000     0.129430000000     0.448660000000     0.103947   
C126     C      0.511010000000     0.265460000000     0.444450000000    -0.0361988  
C127     C      0.525890000000     0.313550000000     0.472810000000     0.0487586  
C128     C      0.517410000000     0.186200000000     0.462570000000     0.0555031  
C129     C      0.541260000000     0.023970000000     0.644750000000    -0.103768   
C130     C      0.482950000000     0.985370000000     0.823640000000     0.0678765  
C131     C      0.542160000000     0.993440000000     0.834940000000     0.0685946  
C132     C      0.487100000000     0.986520000000     0.794460000000    -0.0921085  
C133     C      0.494850000000     0.967470000000     0.737430000000    -0.0367654  
C134     C      0.497120000000     0.968270000000     0.707920000000    -0.0346952  
C135     C      0.523250000000     0.991400000000     0.753910000000    -0.00632247 
C136     C      0.547360000000     0.995060000000     0.805680000000    -0.0912444  
C137     C      0.527810000000     0.993110000000     0.693960000000    -0.00938113 
C138     C      0.517040000000     0.964500000000     0.649210000000    -0.0962622  
C139     C      0.556460000000     0.016930000000     0.710430000000    -0.0348402  
C140     C      0.515270000000     0.964950000000     0.619410000000     0.0673492  
C141     C      0.539290000000     0.023930000000     0.614640000000     0.0990438  
C142     C      0.554300000000     0.015930000000     0.740150000000    -0.0366039  
C143     C      0.519440000000     0.991200000000     0.785060000000     0.0470414  
C144     C      0.529200000000     0.994020000000     0.662290000000     0.0527335  
C145     C      0.420510000000     0.978740000000     0.294990000000    -0.103566   
C146     C      0.478030000000     0.969850000000     0.121520000000     0.0692506  
C147     C      0.425730000000     0.975580000000     0.109140000000     0.0690329  
C148     C      0.471990000000     0.966110000000     0.150670000000    -0.0940502  
C149     C      0.428090000000     0.934490000000     0.206980000000    -0.0368497  
C150     C      0.424960000000     0.932170000000     0.236620000000    -0.034651   
C151     C      0.436790000000     0.964630000000     0.190250000000    -0.00692926 
C152     C      0.419430000000     0.972770000000     0.138280000000    -0.0925571  
C153     C      0.431370000000     0.960240000000     0.250390000000    -0.00857679 
C154     C      0.439740000000     0.937280000000     0.300780000000    -0.0936959  
C155     C      0.439900000000     0.990380000000     0.233280000000    -0.0346134  
C156     C      0.440600000000     0.937530000000     0.330570000000     0.0717606  
C157     C      0.422270000000     0.979070000000     0.324950000000     0.100553   
C158     C      0.442190000000     0.992400000000     0.203550000000    -0.0367673  
C159     C      0.442570000000     0.967700000000     0.159300000000     0.048047   
C160     C      0.430320000000     0.958550000000     0.282390000000     0.0526556  
C161     C      0.557420000000     0.852850000000     0.931880000000    -0.10352    
C162     C      0.511230000000     0.643320000000     0.978370000000     0.0691881  
C163     C      0.514460000000     0.642210000000     0.928610000000     0.066528   
C164     C      0.517220000000     0.676130000000     0.974150000000    -0.0936128  
C165     C      0.501130000000     0.732660000000     0.956120000000    -0.0365892  
C166     C      0.502640000000     0.763800000000     0.952020000000    -0.0349241  
C167     C      0.524010000000     0.726170000000     0.941810000000    -0.006817   
C168     C      0.520570000000     0.675260000000     0.923620000000    -0.0913955  
C169     C      0.527040000000     0.789540000000     0.933450000000    -0.00920079 
C170     C      0.493030000000     0.821030000000     0.924060000000    -0.0972665  
C171     C      0.550510000000     0.783500000000     0.919380000000    -0.0354494  
C172     C      0.490650000000     0.849700000000     0.925910000000     0.073149   
C173     C      0.554330000000     0.881830000000     0.933450000000     0.100787   
C174     C      0.548780000000     0.751940000000     0.923330000000    -0.0369075  
C175     C      0.521380000000     0.692430000000     0.946510000000     0.046542   
C176     C      0.526310000000     0.821800000000     0.928720000000     0.0537013  
C177     C      0.406710000000     0.106900000000     0.019510000000    -0.104179   
C178     C      0.458110000000     0.317800000000     0.984520000000     0.0694214  
C179     C      0.455460000000     0.319530000000     0.034250000000     0.06727    
C180     C      0.449780000000     0.284250000000     0.988730000000    -0.0925039  
C181     C      0.457920000000     0.223850000000     0.043020000000    -0.0366528  
C182     C      0.455880000000     0.192370000000     0.044920000000    -0.0354323  
C183     C      0.438290000000     0.232780000000     0.021050000000    -0.00672064 
C184     C      0.447640000000     0.286000000000     0.039290000000    -0.0916949  
C185     C      0.433890000000     0.168900000000     0.025090000000    -0.00917998 
C186     C      0.471100000000     0.140900000000     0.024300000000    -0.0965545  
C187     C      0.412500000000     0.177030000000     0.004260000000    -0.0357037  
C188     C      0.474680000000     0.113620000000     0.019120000000     0.0725069  
C189     C      0.410950000000     0.079330000000     0.014840000000     0.100123   
C190     C      0.414810000000     0.208660000000     0.002170000000    -0.0374681  
C191     C      0.444660000000     0.267890000000     0.016360000000     0.0457699  
C192     C      0.436970000000     0.138200000000     0.023720000000     0.0531829  
C193     C      0.670930000000     0.152340000000     0.504100000000    -0.104461   
C194     C      0.875140000000     0.320240000000     0.436330000000     0.0716804  
C195     C      0.830690000000     0.336610000000     0.438450000000     0.0724454  
C196     C      0.849570000000     0.286660000000     0.442830000000    -0.0930076  
C197     C      0.773820000000     0.217520000000     0.444070000000    -0.0368523  
C198     C      0.745080000000     0.187020000000     0.453910000000    -0.0347169  
C199     C      0.788360000000     0.244990000000     0.460550000000    -0.00724237 
C200     C      0.804770000000     0.303670000000     0.445060000000    -0.095883   
C201     C      0.730710000000     0.183340000000     0.480630000000    -0.00945041 
C202     C      0.691930000000     0.121170000000     0.482300000000    -0.0961975  
C203     C      0.746780000000     0.210620000000     0.497650000000    -0.0351782  
C204     C      0.658690000000     0.092740000000     0.486440000000     0.0698401  
C205     C      0.637800000000     0.123050000000     0.508730000000     0.0987847  
C206     C      0.775110000000     0.241180000000     0.487590000000    -0.0366402  
C207     C      0.814520000000     0.278610000000     0.448680000000     0.0497444  
C208     C      0.697780000000     0.151880000000     0.489610000000     0.0529818  
C209     C      0.263960000000     0.828240000000     0.458890000000    -0.106864   
C210     C      0.130960000000     0.617240000000     0.527360000000     0.0699424  
C211     C      0.088280000000     0.636720000000     0.522450000000     0.0687957  
C212     C      0.158830000000     0.649440000000     0.521260000000    -0.0955308  
C213     C      0.196060000000     0.706190000000     0.476390000000    -0.0360427  
C214     C      0.222960000000     0.735550000000     0.463320000000    -0.0348411  
C215     C      0.178390000000     0.707190000000     0.499500000000    -0.00698018 
C216     C      0.115700000000     0.669520000000     0.516080000000    -0.0924073  
C217     C      0.233130000000     0.766650000000     0.473250000000    -0.00900972 
C218     C      0.294690000000     0.797550000000     0.453040000000    -0.0955372  
C219     C      0.214740000000     0.767640000000     0.496000000000    -0.034245   
C220     C      0.325450000000     0.827690000000     0.445870000000     0.0736811  
C221     C      0.295300000000     0.858100000000     0.452050000000     0.109106   
C222     C      0.187390000000     0.738180000000     0.508840000000    -0.0365379  
C223     C      0.150920000000     0.675510000000     0.513530000000     0.0484142  
C224     C      0.264040000000     0.797730000000     0.461110000000     0.0556516  
C225     C      0.836450000000     0.549290000000     0.494620000000    -0.105242   
C226     C      0.605690000000     0.472170000000     0.430130000000     0.0681298  
C227     C      0.626770000000     0.530540000000     0.422650000000     0.0689693  
C228     C      0.639980000000     0.477910000000     0.440850000000    -0.0932217  
C229     C      0.703510000000     0.499120000000     0.484690000000    -0.0362628  
C230     C      0.736050000000     0.502640000000     0.497890000000    -0.0357999  
C231     C      0.703010000000     0.516940000000     0.458290000000    -0.00726095 
C232     C      0.661560000000     0.537210000000     0.432900000000    -0.0927069  
C233     C      0.768830000000     0.523780000000     0.484820000000    -0.00974793 
C234     C      0.798800000000     0.489760000000     0.502180000000    -0.0975365  
C235     C      0.768560000000     0.543230000000     0.459290000000    -0.0350043  
C236     C      0.829540000000     0.486230000000     0.505700000000     0.0723345  
C237     C      0.867320000000     0.545090000000     0.498690000000     0.0998159  
C238     C      0.735910000000     0.539940000000     0.446200000000    -0.0371214  
C239     C      0.667980000000     0.510720000000     0.443410000000     0.0499682  
C240     C      0.801810000000     0.521320000000     0.495060000000     0.0535955  
C241     C      0.167270000000     0.499140000000     0.460320000000    -0.108662   
C242     C      0.331930000000     0.453920000000     0.547250000000     0.0743958  
C243     C      0.365600000000     0.513060000000     0.542470000000     0.0711355  
C244     C      0.299600000000     0.454960000000     0.544550000000    -0.0929902  
C245     C      0.233560000000     0.465620000000     0.537180000000    -0.0370856  
C246     C      0.201590000000     0.461710000000     0.522250000000    -0.0344973  
C247     C      0.267040000000     0.486050000000     0.524990000000    -0.00612737 
C248     C      0.333610000000     0.515090000000     0.538740000000    -0.0929395  
C249     C      0.202330000000     0.477680000000     0.494540000000    -0.00959253 
C250     C      0.136220000000     0.442150000000     0.480410000000    -0.0946894  
C251     C      0.236070000000     0.498620000000     0.482690000000    -0.0345731  
C252     C      0.103890000000     0.439220000000     0.467020000000     0.0700265  
C253     C      0.134710000000     0.495330000000     0.446710000000     0.101657   
C254     C      0.267990000000     0.502960000000     0.497820000000    -0.0363101  
C255     C      0.300200000000     0.485650000000     0.537920000000     0.0489337  
C256     C      0.168200000000     0.472870000000     0.478250000000     0.0535504  
C257     C      0.962940000000     0.461460000000     0.799420000000    -0.105967   
C258     C      0.971750000000     0.520910000000     0.612390000000     0.0695907  
C259     C      0.963670000000     0.465970000000     0.622350000000     0.0699477  
C260     C      0.972550000000     0.523930000000     0.641770000000    -0.0929861  
C261     C      0.952290000000     0.511670000000     0.705300000000    -0.0368052  
C262     C      0.951650000000     0.509930000000     0.735180000000    -0.0353216  
C263     C      0.972210000000     0.500030000000     0.693010000000    -0.00577979 
C264     C      0.964460000000     0.468180000000     0.651600000000    -0.0951109  
C265     C      0.970920000000     0.496530000000     0.753100000000    -0.00819794 
C266     C      0.969960000000     0.516370000000     0.800000000000    -0.0960928  
C267     C      0.992240000000     0.486560000000     0.740700000000    -0.0399487  
C268     C      0.968900000000     0.511520000000     0.829810000000     0.070333   
C269     C      0.961460000000     0.456890000000     0.829320000000     0.102052   
C270     C      0.992920000000     0.488330000000     0.711010000000    -0.0413158  
C271     C      0.969600000000     0.497540000000     0.661690000000     0.0478857  
C272     C      0.967910000000     0.491520000000     0.784590000000     0.0538353  
C273     C      0.019340000000     0.504960000000     0.153490000000    -0.105016   
C274     C      0.998730000000     0.442720000000     0.340400000000     0.054664   
C275     C      0.011290000000     0.499140000000     0.331490000000     0.0680807  
C276     C      0.000940000000     0.441070000000     0.311200000000    -0.0743064  
C277     C      0.026370000000     0.454680000000     0.249070000000    -0.0381334  
C278     C      0.028240000000     0.456520000000     0.219310000000    -0.0343914  
C279     C      0.007150000000     0.467600000000     0.260540000000     0.002134   
C280     C      0.013560000000     0.498310000000     0.302420000000    -0.0885514  
C281     C      0.010830000000     0.471240000000     0.200670000000    -0.00447278 
C282     C      0.011370000000     0.449480000000     0.154610000000    -0.0953032  
C283     C      0.990420000000     0.482840000000     0.212260000000    -0.0395121  
C284     C      0.011640000000     0.453000000000     0.124750000000     0.0699963  
C285     C      0.019770000000     0.508070000000     0.123550000000     0.102615   
C286     C      0.988630000000     0.481060000000     0.241820000000    -0.0432938  
C287     C      0.007560000000     0.468900000000     0.291840000000     0.0412088  
C288     C      0.014100000000     0.475230000000     0.169210000000     0.0539757  
C289     C      0.812280000000     0.309170000000     0.914020000000    -0.106726   
C290     C      0.652300000000     0.094660000000     0.917870000000     0.0672755  
C291     C      0.627510000000     0.130020000000     0.921800000000     0.0692182  
C292     C      0.686780000000     0.122760000000     0.914440000000    -0.091065   
C293     C      0.753120000000     0.194360000000     0.896060000000    -0.0368233  
C294     C      0.784720000000     0.225760000000     0.895510000000    -0.035463   
C295     C      0.727890000000     0.185290000000     0.916980000000    -0.00683011 
C296     C      0.661130000000     0.158250000000     0.918390000000    -0.0936135  
C297     C      0.791340000000     0.248340000000     0.915870000000    -0.00963216 
C298     C      0.857390000000     0.292330000000     0.913420000000    -0.095305   
C299     C      0.767230000000     0.238130000000     0.937760000000    -0.0354875  
C300     C      0.884290000000     0.325620000000     0.916820000000     0.0691802  
C301     C      0.839460000000     0.341990000000     0.917330000000     0.104121   
C302     C      0.736060000000     0.207100000000     0.938340000000    -0.0367817  
C303     C      0.691600000000     0.154960000000     0.915840000000     0.0470243  
C304     C      0.820910000000     0.283650000000     0.913600000000     0.0530597  
C305     C      0.159950000000     0.655470000000     0.031940000000    -0.108397   
C306     C      0.313240000000     0.868680000000     0.028500000000     0.0688793  
C307     C      0.333650000000     0.833060000000     0.015260000000     0.0697401  
C308     C      0.278850000000     0.840940000000     0.033360000000    -0.09151    
C309     C      0.217850000000     0.766130000000     0.055530000000    -0.0369501  
C310     C      0.187680000000     0.733860000000     0.057810000000    -0.0353393  
C311     C      0.235410000000     0.779040000000     0.029610000000    -0.00698197 
C312     C      0.300010000000     0.805250000000     0.019680000000    -0.0946819  
C313     C      0.174920000000     0.714320000000     0.034180000000    -0.0100791  
C314     C      0.112550000000     0.665620000000     0.042720000000    -0.0952944  
C315     C      0.190960000000     0.728360000000     0.007860000000    -0.0359181  
C316     C      0.087790000000     0.631640000000     0.039970000000     0.0685822  
C317     C      0.134850000000     0.621740000000     0.029630000000     0.10505    
C318     C      0.220760000000     0.760310000000     0.005580000000    -0.0377502  
C319     C      0.271850000000     0.808930000000     0.028130000000     0.0476717  
C320     C      0.148730000000     0.678020000000     0.037130000000     0.0537418  
C321     C      0.828310000000     0.498260000000     0.039700000000    -0.103661   
C322     C      0.601840000000     0.430070000000     0.967760000000     0.0689418  
C323     C      0.635660000000     0.488790000000     0.957700000000     0.0692679  
C324     C      0.632630000000     0.429340000000     0.980900000000    -0.0918299  
C325     C      0.707880000000     0.436000000000     0.995140000000    -0.035474   
C326     C      0.739570000000     0.437750000000     0.008690000000    -0.0354526  
C327     C      0.697660000000     0.459750000000     0.999290000000    -0.006372   
C328     C      0.666760000000     0.489020000000     0.970800000000    -0.093915   
C329     C      0.761700000000     0.463100000000     0.027040000000    -0.00833989 
C330     C      0.801770000000     0.438500000000     0.045470000000    -0.0955517  
C331     C      0.750770000000     0.486230000000     0.031910000000    -0.0355497  
C332     C      0.836270000000     0.441940000000     0.047820000000     0.0752005  
C333     C      0.862880000000     0.500970000000     0.042880000000     0.0999673  
C334     C      0.719150000000     0.484610000000     0.018130000000    -0.0368758  
C335     C      0.665260000000     0.459260000000     0.983440000000     0.0490138  
C336     C      0.797400000000     0.466730000000     0.038630000000     0.0536848  
C337     C      0.151740000000     0.477720000000     0.927760000000    -0.103601   
C338     C      0.376280000000     0.544850000000     0.998830000000     0.0698905  
C339     C      0.336520000000     0.487570000000     0.011510000000     0.0710432  
C340     C      0.346760000000     0.549670000000     0.988500000000    -0.0925072  
C341     C      0.266660000000     0.542970000000     0.979000000000    -0.0369868  
C342     C      0.234170000000     0.539730000000     0.965480000000    -0.0346276  
C343     C      0.280950000000     0.523440000000     0.971600000000    -0.00737657 
C344     C      0.306750000000     0.491470000000     0.001600000000    -0.0961888  
C345     C      0.215660000000     0.517080000000     0.944190000000    -0.00892518 
C346     C      0.170230000000     0.536080000000     0.926870000000    -0.0940137  
C347     C      0.231370000000     0.499110000000     0.935780000000    -0.0354258  
C348     C      0.134610000000     0.528660000000     0.919380000000     0.0725055  
C349     C      0.116080000000     0.470850000000     0.920030000000     0.0991298  
C350     C      0.263500000000     0.502130000000     0.949440000000    -0.0365632  
C351     C      0.311810000000     0.522170000000     0.988340000000     0.0493952  
C352     C      0.178930000000     0.510340000000     0.932430000000     0.0546631  
C353     C      0.780890000000     0.842750000000     0.540920000000    -0.103127   
C354     C      0.629830000000     0.630610000000     0.522100000000     0.0708484  
C355     C      0.585790000000     0.638130000000     0.541970000000     0.0676762  
C356     C      0.656890000000     0.661930000000     0.529500000000    -0.0953239  
C357     C      0.677530000000     0.745160000000     0.534110000000    -0.0366758  
C358     C      0.709140000000     0.776390000000     0.533620000000    -0.0349445  
C359     C      0.677870000000     0.716650000000     0.548480000000    -0.00714592 
C360     C      0.612420000000     0.670420000000     0.549020000000    -0.0918501  
C361     C      0.741630000000     0.779630000000     0.547570000000    -0.00912479 
C362     C      0.806910000000     0.807780000000     0.536990000000    -0.0953     
C363     C      0.740850000000     0.751540000000     0.563950000000    -0.0352995  
C364     C      0.839210000000     0.836150000000     0.529800000000     0.069999   
C365     C      0.814000000000     0.871300000000     0.533790000000     0.0982764  
C366     C      0.709480000000     0.720450000000     0.564230000000    -0.0370995  
C367     C      0.648460000000     0.682520000000     0.542690000000     0.0477273  
C368     C      0.776950000000     0.810580000000     0.542290000000     0.0523375  
C369     C      0.190190000000     0.139310000000     0.455900000000    -0.106642   
C370     C      0.381470000000     0.328240000000     0.419910000000     0.0682134  
C371     C      0.335080000000     0.335200000000     0.436290000000     0.0679735  
C372     C      0.356360000000     0.295100000000     0.414210000000    -0.0915979  
C373     C      0.296300000000     0.221170000000     0.434400000000    -0.0368637  
C374     C      0.267170000000     0.188540000000     0.436780000000    -0.0352758  
C375     C      0.292790000000     0.246430000000     0.416660000000    -0.0067199  
C376     C      0.309340000000     0.302870000000     0.429980000000    -0.0922853  
C377     C      0.234260000000     0.180440000000     0.421010000000    -0.0100844  
C378     C      0.179310000000     0.127330000000     0.406380000000    -0.0967307  
C379     C      0.231710000000     0.205160000000     0.401690000000    -0.0345334  
C380     C      0.146370000000     0.098990000000     0.413280000000     0.0699077  
C381     C      0.156770000000     0.111400000000     0.462110000000     0.107133   
C382     C      0.260550000000     0.237940000000     0.399790000000    -0.0371338  
C383     C      0.319880000000     0.282100000000     0.419520000000     0.0470719  
C384     C      0.201250000000     0.148160000000     0.427760000000     0.0540347  
C385     C      0.586100000000     0.906430000000     0.414410000000    -0.107771   
C386     C      0.817070000000     0.960270000000     0.421110000000     0.0699204  
C387     C      0.813440000000     0.968390000000     0.469170000000     0.0708511  
C388     C      0.781360000000     0.953360000000     0.414680000000    -0.0935493  
C389     C      0.698500000000     0.921440000000     0.413830000000    -0.0364198  
C390     C      0.663520000000     0.916790000000     0.407030000000    -0.0359161  
C391     C      0.724050000000     0.948640000000     0.429070000000    -0.00764893 
C392     C      0.777840000000     0.962020000000     0.463360000000    -0.0936322  
C393     C      0.653880000000     0.939670000000     0.414870000000    -0.00918459 
C394     C      0.614390000000     0.963740000000     0.395010000000    -0.0961262  
C395     C      0.679410000000     0.966670000000     0.430230000000    -0.0366552  
C396     C      0.581080000000     0.962670000000     0.393140000000     0.0687979  
C397     C      0.552620000000     0.906000000000     0.412460000000     0.0919814  
C398     C      0.714030000000     0.971020000000     0.437370000000    -0.0357518  
C399     C      0.761380000000     0.954300000000     0.435880000000     0.0486969  
C400     C      0.617540000000     0.936100000000     0.407270000000     0.0506497  
C401     C      0.204930000000     0.036440000000     0.488990000000    -0.103962   
C402     C      0.383680000000     0.014090000000     0.558700000000     0.0714658  
C403     C      0.420740000000     0.066320000000     0.533730000000     0.0684815  
C404     C      0.357660000000     0.023440000000     0.561150000000    -0.0933184  
C405     C      0.313090000000     0.048560000000     0.510850000000    -0.0365709  
C406     C      0.277660000000     0.042030000000     0.503900000000    -0.0347271  
C407     C      0.328480000000     0.055900000000     0.538670000000    -0.00682944 
C408     C      0.394330000000     0.075960000000     0.534590000000    -0.0927335  
C409     C      0.256820000000     0.043590000000     0.524390000000    -0.00926113 
C410     C      0.192470000000     0.019670000000     0.538550000000    -0.095016   
C411     C      0.273300000000     0.052990000000     0.551900000000    -0.034636   
C412     C      0.155970000000     0.009200000000     0.531250000000     0.0701664  
C413     C      0.167990000000     0.024380000000     0.481900000000     0.0999259  
C414     C      0.308530000000     0.058420000000     0.559120000000    -0.0376264  
C415     C      0.361570000000     0.053450000000     0.547010000000     0.047278   
C416     C      0.217740000000     0.033630000000     0.517360000000     0.0526845  
C417     C      0.056800000000     0.853370000000     0.431780000000    -0.105797   
C418     C      0.008640000000     0.640580000000     0.422410000000     0.0681534  
C419     C      0.004780000000     0.642430000000     0.471930000000     0.0691319  
C420     C      0.015630000000     0.673790000000     0.416980000000    -0.0912973  
C421     C      0.004900000000     0.735500000000     0.411240000000    -0.0317896  
C422     C      0.007350000000     0.767170000000     0.408110000000    -0.0290504  
C423     C      0.023540000000     0.726800000000     0.434260000000    -0.00749031 
C424     C      0.012090000000     0.675710000000     0.467290000000    -0.0925832  
C425     C      0.028760000000     0.791050000000     0.427760000000    -0.0120333  
C426     C      0.992410000000     0.820340000000     0.425310000000    -0.102504   
C427     C      0.048990000000     0.783040000000     0.449830000000    -0.0336263  
C428     C      0.989240000000     0.848190000000     0.429260000000     0.0679908  
C429     C      0.053000000000     0.881500000000     0.435190000000     0.099861   
C430     C      0.046280000000     0.751220000000     0.453140000000    -0.0364252  
C431     C      0.017510000000     0.691840000000     0.439560000000     0.0480807  
C432     C      0.026280000000     0.822270000000     0.427490000000     0.0602308  
C433     C      0.980400000000     0.142330000000     0.535280000000    -0.113301   
C434     C      0.948280000000     0.317370000000     0.527020000000     0.066429   
C435     C      0.961400000000     0.320000000000     0.478820000000     0.0686154  
C436     C      0.943580000000     0.284780000000     0.531990000000    -0.0915467  
C437     C      0.919750000000     0.208980000000     0.529420000000    -0.0372245  
C438     C      0.919150000000     0.177910000000     0.533130000000    -0.0348326  
C439     C      0.947820000000     0.236890000000     0.515090000000    -0.00675025 
C440     C      0.957110000000     0.287780000000     0.483090000000    -0.0935628  
C441     C      0.946990000000     0.174470000000     0.523070000000    -0.0106434  
C442     C      0.917570000000     0.111820000000     0.520180000000    -0.0956024  
C443     C      0.974990000000     0.202510000000     0.508930000000    -0.034891   
C444     C      0.921550000000     0.083500000000     0.518790000000     0.071184   
C445     C      0.983660000000     0.113860000000     0.533640000000     0.10606    
C446     C      0.975380000000     0.233190000000     0.504970000000    -0.0371824  
C447     C      0.948750000000     0.269890000000     0.510000000000     0.0465392  
C448     C      0.947800000000     0.142200000000     0.526930000000     0.0560724  
C449     C      0.936250000000     0.991660000000     0.797760000000    -0.106676   
C450     C      0.926170000000     0.966940000000     0.614290000000     0.0696767  
C451     C      0.986550000000     0.978260000000     0.625890000000     0.0646639  
C452     C      0.920300000000     0.964420000000     0.643440000000    -0.0933522  
C453     C      0.915410000000     0.940550000000     0.708990000000    -0.0362605  
C454     C      0.912430000000     0.939070000000     0.738590000000    -0.0353732  
C455     C      0.943670000000     0.968510000000     0.695030000000    -0.00848485 
C456     C      0.981810000000     0.976610000000     0.655030000000    -0.0997575  
C457     C      0.937190000000     0.965860000000     0.754510000000    -0.00989108 
C458     C      0.932570000000     0.937630000000     0.804280000000    -0.0958599  
C459     C      0.964990000000     0.994040000000     0.740360000000    -0.0357874  
C460     C      0.934650000000     0.939010000000     0.834000000000     0.0688153  
C461     C      0.937410000000     0.992220000000     0.827600000000     0.100312   
C462     C      0.968370000000     0.995220000000     0.711000000000    -0.0368796  
C463     C      0.948450000000     0.969610000000     0.664100000000     0.0499398  
C464     C      0.934780000000     0.964730000000     0.785900000000     0.0536315  
C465     C      0.036840000000     0.020620000000     0.150350000000    -0.103127   
C466     C      0.040470000000     0.988710000000     0.339430000000     0.0703498  
C467     C      0.980660000000     0.979260000000     0.328490000000     0.0659669  
C468     C      0.045240000000     0.989600000000     0.310240000000    -0.0935548  
C469     C      0.993000000000     0.961020000000     0.242210000000    -0.0407824  
C470     C      0.995350000000     0.962410000000     0.212640000000    -0.0406556  
C471     C      0.020800000000     0.985370000000     0.258730000000    -0.00303558 
C472     C      0.984370000000     0.979580000000     0.299350000000    -0.0997871  
C473     C      0.025440000000     0.988330000000     0.198780000000    -0.0035835  
C474     C      0.016150000000     0.961760000000     0.153140000000    -0.0953458  
C475     C      0.053540000000     0.012470000000     0.215340000000    -0.0359533  
C476     C      0.014700000000     0.963410000000     0.123280000000     0.0711254  
C477     C      0.034970000000     0.021810000000     0.120190000000     0.100443   
C478     C      0.051350000000     0.010870000000     0.245060000000    -0.036121   
C479     C      0.016890000000     0.984840000000     0.289850000000     0.0532417  
C480     C      0.026700000000     0.990390000000     0.167060000000     0.052867   
C481     C      0.668720000000     0.653400000000     0.024100000000    -0.108491   
C482     C      0.803820000000     0.864380000000     0.962600000000     0.0693822  
C483     C      0.830130000000     0.835480000000     0.945320000000     0.068778   
C484     C      0.772720000000     0.834310000000     0.969070000000    -0.0932428  
C485     C      0.706250000000     0.760920000000     0.969200000000    -0.0377394  
C486     C      0.679380000000     0.731100000000     0.982040000000    -0.0333473  
C487     C      0.742650000000     0.772490000000     0.978150000000    -0.00595436 
C488     C      0.799780000000     0.804820000000     0.952340000000    -0.0930931  
C489     C      0.688380000000     0.712720000000     0.004560000000    -0.0108324  
C490     C      0.624450000000     0.671990000000     0.017950000000    -0.0959448  
C491     C      0.724930000000     0.725370000000     0.014140000000    -0.0341711  
C492     C      0.597550000000     0.638940000000     0.023870000000     0.0700694  
C493     C      0.641360000000     0.620700000000     0.030340000000     0.107158   
C494     C      0.751750000000     0.754660000000     0.000830000000    -0.0384269  
C495     C      0.771360000000     0.804150000000     0.965300000000     0.04767    
C496     C      0.660290000000     0.679240000000     0.016230000000     0.0542302  
C497     C      0.184060000000     0.143400000000     0.022740000000    -0.106368   
C498     C      0.376000000000     0.320010000000     0.944950000000     0.0715252  
C499     C      0.333320000000     0.337420000000     0.950690000000     0.0710839  
C500     C      0.349910000000     0.286480000000     0.950830000000    -0.0921094  
C501     C      0.298160000000     0.223420000000     0.986520000000    -0.0362351  
C502     C      0.271890000000     0.192360000000     0.998190000000    -0.0351752  
C503     C      0.287930000000     0.244120000000     0.967830000000    -0.00712454 
C504     C      0.306840000000     0.304570000000     0.956470000000    -0.0949876  
C505     C      0.235130000000     0.181950000000     0.991750000000    -0.00938909 
C506     C      0.199740000000     0.121700000000     0.986040000000    -0.0962703  
C507     C      0.224880000000     0.202210000000     0.972860000000    -0.0353051  
C508     C      0.167500000000     0.092050000000     0.989440000000     0.070761   
C509     C      0.152260000000     0.112600000000     0.026510000000     0.103001   
C510     C      0.250950000000     0.232780000000     0.960800000000    -0.0362458  
C511     C      0.315140000000     0.278590000000     0.957700000000     0.0487846  
C512     C      0.207010000000     0.148340000000     0.001400000000     0.0536171  
C513     C      0.883330000000     0.056450000000     0.033380000000    -0.107907   
C514     C      0.653030000000     0.007430000000     0.029690000000     0.068514   
C515     C      0.657160000000     0.000820000000     0.981310000000     0.070626   
C516     C      0.688670000000     0.013920000000     0.036180000000    -0.0921481  
C517     C      0.754690000000     0.995030000000     0.012640000000    -0.0358823  
C518     C      0.789080000000     0.998550000000     0.019140000000    -0.0369628  
C519     C      0.745690000000     0.017850000000     0.021560000000    -0.00726908 
C520     C      0.692570000000     0.006690000000     0.987170000000    -0.0925209  
C521     C      0.815470000000     0.025160000000     0.034450000000    -0.00918316 
C522     C      0.853680000000     0.999540000000     0.053700000000    -0.0959975  
C523     C      0.806860000000     0.048430000000     0.043010000000    -0.0360292  
C524     C      0.886250000000     0.999250000000     0.054850000000     0.0698142  
C525     C      0.916070000000     0.055510000000     0.034600000000     0.0916129  
C526     C      0.772060000000     0.044580000000     0.036880000000    -0.0365308  
C527     C      0.708720000000     0.013280000000     0.014850000000     0.0474388  
C528     C      0.851490000000     0.027650000000     0.041420000000     0.050598   
C529     C      0.267010000000     0.919210000000     0.915660000000    -0.105324   
C530     C      0.074120000000     0.942300000000     0.884470000000     0.0741956  
C531     C      0.046200000000     0.892760000000     0.915330000000     0.0674368  
C532     C      0.103780000000     0.937730000000     0.882850000000    -0.0925509  
C533     C      0.171500000000     0.946990000000     0.915560000000    -0.0375408  
C534     C      0.205930000000     0.951370000000     0.923560000000    -0.0342325  
C535     C      0.143130000000     0.915740000000     0.908090000000    -0.00608833 
C536     C      0.076240000000     0.887850000000     0.914940000000    -0.09197    
C537     C      0.213100000000     0.924650000000     0.924280000000    -0.00997226 
C538     C      0.270180000000     0.948420000000     0.955560000000    -0.096219   
C539     C      0.184820000000     0.893230000000     0.916900000000    -0.0345732  
C540     C      0.306160000000     0.956090000000     0.961340000000     0.0702298  
C541     C      0.303290000000     0.927240000000     0.921810000000     0.100947   
C542     C      0.149950000000     0.888710000000     0.909160000000    -0.0373908  
C543     C      0.106680000000     0.912240000000     0.900470000000     0.0470749  
C544     C      0.250360000000     0.930320000000     0.932190000000     0.0540345  
C545     C      0.954290000000     0.638100000000     0.007790000000    -0.110657   
C546     C      0.919920000000     0.811420000000     0.963330000000     0.071209   
C547     C      0.940550000000     0.814130000000     0.012400000000     0.0692537  
C548     C      0.913800000000     0.778760000000     0.964000000000    -0.0958081  
C549     C      0.897750000000     0.705650000000     0.975120000000    -0.037199   
C550     C      0.901920000000     0.677670000000     0.973280000000    -0.0349786  
C551     C      0.925390000000     0.733570000000     0.988280000000    -0.00814926 
C552     C      0.934770000000     0.781540000000     0.013810000000    -0.0970927  
C553     C      0.933840000000     0.677530000000     0.984430000000    -0.0115096  
C554     C      0.930260000000     0.631280000000     0.959040000000    -0.0990917  
C555     C      0.961590000000     0.705810000000     0.997010000000    -0.0343886  
C556     C      0.938410000000     0.605480000000     0.958620000000     0.0715013  
C557     C      0.963090000000     0.612890000000     0.006810000000     0.102274   
C558     C      0.957330000000     0.733420000000     0.999040000000    -0.0362993  
C559     C      0.922900000000     0.764200000000     0.989070000000     0.0502179  
C560     C      0.938660000000     0.648050000000     0.983760000000     0.0568814  
C561     C      0.070690000000     0.186880000000     0.981670000000    -0.108889   
C562     C      0.014500000000     0.350060000000     0.947290000000     0.0730472  
C563     C      0.038370000000     0.355880000000     0.995530000000     0.0724145  
C564     C      0.023470000000     0.325260000000     0.945060000000    -0.0951194  
C565     C      0.058300000000     0.282860000000     0.941460000000    -0.0365678  
C566     C      0.061180000000     0.254350000000     0.939260000000    -0.0353524  
C567     C      0.047650000000     0.287550000000     0.967030000000    -0.00774566 
C568     C      0.048180000000     0.331440000000     0.993890000000    -0.0950478  
C569     C      0.054060000000     0.230470000000     0.962750000000    -0.0108016  
C570     C      0.033630000000     0.178990000000     0.937890000000    -0.0989553  
C571     C      0.044850000000     0.235770000000     0.988620000000    -0.0342726  
C572     C      0.028070000000     0.146470000000     0.938910000000     0.0713011  
C573     C      0.065120000000     0.154380000000     0.982050000000     0.104969   
C574     C      0.041490000000     0.263930000000     0.990710000000    -0.0353902  
C575     C      0.040390000000     0.315570000000     0.968530000000     0.0498322  
C576     C      0.053700000000     0.198830000000     0.960200000000     0.0566365  
H1       H      0.011810000000     0.988470000000     0.909030000000     0.200996   
H2       H      0.957590000000     0.037910000000     0.977100000000     0.195069   
H3       H      0.918260000000     0.905130000000     0.994050000000     0.197234   
H4       H      0.056420000000     0.994730000000     0.023050000000     0.198207   
H5       H      0.941090000000     0.058090000000     0.926860000000     0.134214   
H6       H      0.885060000000     0.013000000000     0.982540000000     0.197308   
H7       H      0.866510000000     0.923880000000     0.030090000000     0.131849   
H8       H      0.956960000000     0.885510000000     0.071600000000     0.199303   
H9       H      0.038530000000     0.913320000000     0.022970000000     0.144721   
H10      H      0.104360000000     0.977450000000     0.000230000000     0.196614   
H11      H      0.092510000000     0.047310000000     0.919540000000     0.129794   
H12      H      0.042050000000     0.060370000000     0.887570000000     0.186978   
H13      H      0.924310000000     0.894510000000     0.058360000000     0.18632    
H14      H      0.088100000000     0.951010000000     0.974360000000     0.202274   
H15      H      0.013750000000     0.076010000000     0.879260000000     0.203656   
H16      H      0.876120000000     0.996250000000     0.951120000000     0.203518   
H17      H      0.897840000000     0.930270000000     0.464150000000     0.198415   
H18      H      0.018060000000     0.033810000000     0.416740000000     0.192461   
H19      H      0.001550000000     0.029170000000     0.531560000000     0.20077    
H20      H      0.027860000000     0.936150000000     0.495090000000     0.19875    
H21      H      0.966580000000     0.038300000000     0.384280000000     0.133741   
H22      H      0.989390000000     0.087580000000     0.429710000000     0.201437   
H23      H      0.071280000000     0.100710000000     0.508640000000     0.135275   
H24      H      0.075950000000     0.046080000000     0.556600000000     0.188099   
H25      H      0.005870000000     0.921540000000     0.562860000000     0.144323   
H26      H      0.980820000000     0.870250000000     0.516030000000     0.196167   
H27      H      0.907120000000     0.877340000000     0.434690000000     0.130263   
H28      H      0.888350000000     0.918130000000     0.401510000000     0.186598   
H29      H      0.076400000000     0.014840000000     0.578770000000     0.201489   
H30      H      0.946120000000     0.865450000000     0.533440000000     0.199848   
H31      H      0.894540000000     0.948810000000     0.375810000000     0.200849   
H32      H      0.028750000000     0.095610000000     0.417820000000     0.192364   
H33      H      0.948600000000     0.445580000000     0.040350000000     0.197134   
H34      H      0.922160000000     0.448990000000     0.924040000000     0.193495   
H35      H      0.023750000000     0.563510000000     0.970410000000     0.197495   
H36      H      0.053100000000     0.460640000000     0.973800000000     0.205391   
H37      H      0.861100000000     0.447170000000     0.954790000000     0.133816   
H38      H      0.902520000000     0.526220000000     0.913360000000     0.203582   
H39      H      0.025010000000     0.574110000000     0.908030000000     0.134808   
H40      H      0.096250000000     0.590440000000     0.933360000000     0.190958   
H41      H      0.113000000000     0.518560000000     0.007520000000     0.135618   
H42      H      0.066840000000     0.428190000000     0.045070000000     0.203058   
H43      H      0.953550000000     0.374920000000     0.034660000000     0.140987   
H44      H      0.883580000000     0.383380000000     0.035270000000     0.195997   
H45      H      0.129020000000     0.587120000000     0.954200000000     0.202027   
H46      H      0.082550000000     0.469220000000     0.046290000000     0.195484   
H47      H      0.882590000000     0.361420000000     0.009110000000     0.201535   
H48      H      0.891820000000     0.487500000000     0.906680000000     0.188685   
H49      H      0.919130000000     0.461840000000     0.523300000000     0.192811   
H50      H      0.937210000000     0.457770000000     0.410890000000     0.199153   
H51      H      0.040670000000     0.561700000000     0.468430000000     0.199258   
H52      H      0.025730000000     0.436850000000     0.499250000000     0.202619   
H53      H      0.878160000000     0.484970000000     0.421750000000     0.142354   
H54      H      0.937660000000     0.540320000000     0.393210000000     0.2001     
H55      H      0.064980000000     0.565650000000     0.411150000000     0.133903   
H56      H      0.126830000000     0.564500000000     0.471270000000     0.194701   
H57      H      0.081250000000     0.490720000000     0.542490000000     0.140117   
H58      H      0.024890000000     0.420140000000     0.555950000000     0.197271   
H59      H      0.895060000000     0.389440000000     0.534670000000     0.130059   
H60      H      0.826490000000     0.411250000000     0.468050000000     0.200705   
H61      H      0.135620000000     0.537980000000     0.493870000000     0.20236    
H62      H      0.007580000000     0.429290000000     0.581560000000     0.204256   
H63      H      0.845100000000     0.403120000000     0.499110000000     0.188115   
H64      H      0.944250000000     0.517220000000     0.372260000000     0.198767   
H65      H      0.469640000000     0.933470000000     0.919380000000     0.192408   
H66      H      0.451820000000     0.931110000000     0.032870000000     0.194245   
H67      H      0.569470000000     0.036170000000     0.984720000000     0.19861    
H68      H      0.436880000000     0.024370000000     0.952440000000     0.198692   
H69      H      0.445120000000     0.871870000000     0.030600000000     0.135449   
H70      H      0.530820000000     0.924600000000     0.048260000000     0.206517   
H71      H      0.555920000000     0.046270000000     0.050100000000     0.135145   
H72      H      0.572590000000     0.094650000000     0.006640000000     0.18781    
H73      H      0.506940000000     0.081680000000     0.911400000000     0.141732   
H74      H      0.414110000000     0.025120000000     0.895840000000     0.19733    
H75      H      0.402100000000     0.916120000000     0.895250000000     0.124736   
H76      H      0.398240000000     0.867230000000     0.935200000000     0.187024   
H77      H      0.559450000000     0.119480000000     0.985880000000     0.202407   
H78      H      0.450710000000     0.035540000000     0.878120000000     0.199594   
H79      H      0.405670000000     0.842290000000     0.960880000000     0.200262   
H80      H      0.530770000000     0.943370000000     0.076490000000     0.202357   
H81      H      0.404480000000     0.956520000000     0.426650000000     0.192617   
H82      H      0.453300000000     0.968450000000     0.539290000000     0.198416   
H83      H      0.511890000000     0.923180000000     0.470450000000     0.202286   
H84      H      0.541450000000     0.054090000000     0.452050000000     0.195326   
H85      H      0.379750000000     0.907820000000     0.534100000000     0.12817    
H86      H      0.433280000000     0.895320000000     0.564650000000     0.187362   
H87      H      0.555400000000     0.943860000000     0.537810000000     0.140775   
H88      H      0.598390000000     0.973590000000     0.490370000000     0.1983     
H89      H      0.592600000000     0.040320000000     0.413740000000     0.130511   
H90      H      0.507530000000     0.073960000000     0.380790000000     0.203703   
H91      H      0.406510000000     0.022600000000     0.420980000000     0.136363   
H92      H      0.356230000000     0.970570000000     0.448000000000     0.191958   
H93      H      0.581370000000     0.949760000000     0.462670000000     0.197923   
H94      H      0.535700000000     0.058380000000     0.390490000000     0.187042   
H95      H      0.362100000000     0.990050000000     0.477420000000     0.203823   
H96      H      0.466450000000     0.885340000000     0.570690000000     0.200766   
H97      H      0.431800000000     0.464090000000     0.034370000000     0.199899   
H98      H      0.436730000000     0.456140000000     0.919620000000     0.19149    
H99      H      0.545540000000     0.562730000000     0.970780000000     0.199093   
H100     H      0.534210000000     0.439600000000     0.001870000000     0.205546   
H101     H      0.368820000000     0.448620000000     0.923090000000     0.130967   
H102     H      0.437420000000     0.540310000000     0.901800000000     0.208139   
H103     H      0.564100000000     0.567050000000     0.913020000000     0.129557   
H104     H      0.627170000000     0.565610000000     0.960340000000     0.192767   
H105     H      0.605050000000     0.505570000000     0.038070000000     0.138022   
H106     H      0.522080000000     0.411540000000     0.070870000000     0.202878   
H107     H      0.410130000000     0.394460000000     0.050160000000     0.129506   
H108     H      0.346180000000     0.400550000000     0.003950000000     0.192453   
H109     H      0.642910000000     0.549410000000     0.988430000000     0.198822   
H110     H      0.548540000000     0.453090000000     0.068840000000     0.202068   
H111     H      0.331410000000     0.416920000000     0.975320000000     0.195895   
H112     H      0.438810000000     0.513810000000     0.881310000000     0.198114   
H113     H      0.446970000000     0.452180000000     0.544100000000     0.193124   
H114     H      0.414960000000     0.449830000000     0.428740000000     0.192463   
H115     H      0.517340000000     0.567830000000     0.470320000000     0.197093   
H116     H      0.548670000000     0.465600000000     0.475250000000     0.201673   
H117     H      0.354420000000     0.439780000000     0.452940000000     0.125579   
H118     H      0.380920000000     0.499060000000     0.425190000000     0.191794   
H119     H      0.517310000000     0.574580000000     0.408580000000     0.131604   
H120     H      0.590350000000     0.592280000000     0.429750000000     0.191751   
H121     H      0.625260000000     0.546120000000     0.492890000000     0.13972    
H122     H      0.579510000000     0.455420000000     0.527280000000     0.199565   
H123     H      0.453230000000     0.395740000000     0.557770000000     0.131294   
H124     H      0.388330000000     0.369020000000     0.521230000000     0.201174   
H125     H      0.623240000000     0.591650000000     0.452410000000     0.193931   
H126     H      0.575520000000     0.469580000000     0.557020000000     0.204046   
H127     H      0.377430000000     0.389770000000     0.541510000000     0.195977   
H128     H      0.401590000000     0.520330000000     0.395210000000     0.203382   
H129     H      0.521120000000     0.446210000000     0.617220000000     0.0243478  
H130     H      0.487170000000     0.509970000000     0.841450000000     0.0215531  
H131     H      0.550780000000     0.467050000000     0.713130000000     0.0370994  
H132     H      0.451020000000     0.472750000000     0.753060000000     0.0359848  
H133     H      0.489210000000     0.509370000000     0.791120000000     0.053263   
H134     H      0.455420000000     0.478800000000     0.701290000000     0.0369795  
H135     H      0.506870000000     0.424470000000     0.805790000000     0.0551094  
H136     H      0.520130000000     0.439790000000     0.668990000000     0.0516733  
H137     H      0.495370000000     0.520420000000     0.665790000000     0.0520828  
H138     H      0.546220000000     0.460830000000     0.765210000000     0.0372133  
H139     H      0.495870000000     0.525920000000     0.614020000000     0.0253258  
H140     H      0.516630000000     0.394800000000     0.850180000000     0.0314099  
H141     H      0.466930000000     0.441360000000     0.345210000000     0.0263758  
H142     H      0.463670000000     0.533530000000     0.100600000000     0.0242248  
H143     H      0.422260000000     0.435300000000     0.251840000000     0.0370135  
H144     H      0.487520000000     0.547670000000     0.199960000000     0.0373875  
H145     H      0.451990000000     0.533390000000     0.149970000000     0.0533066  
H146     H      0.481000000000     0.543060000000     0.251610000000     0.0376331  
H147     H      0.488980000000     0.462090000000     0.176010000000     0.0566547  
H148     H      0.463740000000     0.444670000000     0.293470000000     0.0525251  
H149     H      0.440030000000     0.525970000000     0.290430000000     0.0515686  
H150     H      0.429420000000     0.440030000000     0.200490000000     0.03784    
H151     H      0.444070000000     0.522540000000     0.342360000000     0.0215462  
H152     H      0.520170000000     0.441350000000     0.150660000000     0.0313466  
H153     H      0.435110000000     0.823890000000     0.534900000000     0.021566   
H154     H      0.445980000000     0.589770000000     0.530630000000     0.0269226  
H155     H      0.450010000000     0.738150000000     0.528750000000     0.0371066  
H156     H      0.359980000000     0.650140000000     0.467690000000     0.0349307  
H157     H      0.426370000000     0.628470000000     0.537790000000     0.0523904  
H158     H      0.356080000000     0.701140000000     0.469570000000     0.0355941  
H159     H      0.403310000000     0.639340000000     0.447110000000     0.0547972  
H160     H      0.417840000000     0.765110000000     0.541600000000     0.0511923  
H161     H      0.394460000000     0.758300000000     0.450290000000     0.0521001  
H162     H      0.453870000000     0.687850000000     0.526870000000     0.0366012  
H163     H      0.410790000000     0.816640000000     0.444340000000     0.0269978  
H164     H      0.408000000000     0.613610000000     0.406690000000     0.0298575  
H165     H      0.511090000000     0.352630000000     0.522050000000     0.0271096  
H166     H      0.557520000000     0.139260000000     0.485190000000     0.023594   
H167     H      0.499170000000     0.275300000000     0.427020000000     0.0366282  
H168     H      0.548100000000     0.226030000000     0.507400000000     0.0361623  
H169     H      0.568040000000     0.195580000000     0.485570000000     0.0519762  
H170     H      0.553160000000     0.280240000000     0.511230000000     0.0359713  
H171     H      0.465150000000     0.167670000000     0.439860000000     0.0548492  
H172     H      0.517910000000     0.304070000000     0.518590000000     0.0517526  
H173     H      0.534200000000     0.332160000000     0.428020000000     0.0516227  
H174     H      0.497610000000     0.223080000000     0.422040000000     0.035832   
H175     H      0.524670000000     0.378740000000     0.431900000000     0.026258   
H176     H      0.417130000000     0.113920000000     0.423890000000     0.0312886  
H177     H      0.564300000000     0.996190000000     0.850180000000     0.0265392  
H178     H      0.504580000000     0.940890000000     0.610830000000     0.0214909  
H179     H      0.576550000000     0.034810000000     0.752240000000     0.0374639  
H180     H      0.474410000000     0.949740000000     0.695890000000     0.0362976  
H181     H      0.508330000000     0.940830000000     0.661970000000     0.0512282  
H182     H      0.470690000000     0.948060000000     0.747380000000     0.0375528  
H183     H      0.551520000000     0.047320000000     0.654450000000     0.0548676  
H184     H      0.572790000000     0.998620000000     0.799320000000     0.0520048  
H185     H      0.464990000000     0.983930000000     0.779270000000     0.0521384  
H186     H      0.580580000000     0.036230000000     0.700370000000     0.0365367  
H187     H      0.457230000000     0.981610000000     0.829580000000     0.0273304  
H188     H      0.571160000000     0.089010000000     0.612920000000     0.0312301  
H189     H      0.407040000000     0.979250000000     0.093500000000     0.0266501  
H190     H      0.449410000000     0.921430000000     0.343660000000     0.0276813  
H191     H      0.449390000000     0.016030000000     0.191070000000     0.0387465  
H192     H      0.417560000000     0.908310000000     0.248650000000     0.0364484  
H193     H      0.447810000000     0.921240000000     0.292410000000     0.0526331  
H194     H      0.423780000000     0.912720000000     0.197080000000     0.037988   
H195     H      0.410970000000     0.994040000000     0.281580000000     0.0540404  
H196     H      0.396430000000     0.974210000000     0.144310000000     0.0531839  
H197     H      0.490520000000     0.962390000000     0.166440000000     0.0526168  
H198     H      0.445880000000     0.012840000000     0.242830000000     0.0364279  
H199     H      0.501300000000     0.968500000000     0.115970000000     0.0194657  
H200     H      0.395100000000     0.019470000000     0.316470000000     0.03196    
H201     H      0.513460000000     0.629690000000     0.910230000000     0.0260369  
H202     H      0.463810000000     0.847240000000     0.923250000000     0.0171563  
H203     H      0.566930000000     0.747760000000     0.912140000000     0.0368045  
H204     H      0.484460000000     0.767730000000     0.963450000000     0.037807   
H205     H      0.468440000000     0.797810000000     0.920440000000     0.0519835  
H206     H      0.481470000000     0.713390000000     0.970240000000     0.0371909  
H207     H      0.583630000000     0.854080000000     0.935090000000     0.0549089  
H208     H      0.523480000000     0.686850000000     0.901870000000     0.0515899  
H209     H      0.518250000000     0.688590000000     0.992570000000     0.0515168  
H210     H      0.569560000000     0.802870000000     0.904940000000     0.0367465  
H211     H      0.507850000000     0.631950000000     0.000230000000     0.0259506  
H212     H      0.624140000000     0.914550000000     0.942310000000     0.0309222  
H213     H      0.457390000000     0.332480000000     0.052620000000     0.0235611  
H214     H      0.502040000000     0.117620000000     0.019310000000     0.0207334  
H215     H      0.398970000000     0.214600000000     0.985230000000     0.0362083  
H216     H      0.472550000000     0.186800000000     0.061330000000     0.0364648  
H217     H      0.495300000000     0.164560000000     0.027410000000     0.0521637  
H218     H      0.476340000000     0.241810000000     0.057850000000     0.0366899  
H219     H      0.379900000000     0.104190000000     0.019160000000     0.0542834  
H220     H      0.443810000000     0.274320000000     0.061020000000     0.0510647  
H221     H      0.448340000000     0.271480000000     0.970410000000     0.0513772  
H222     H      0.395480000000     0.159650000000     0.988550000000     0.0373591  
H223     H      0.462260000000     0.329250000000     0.962700000000     0.0271084  
H224     H      0.340850000000     0.044850000000     0.009010000000     0.0308118  
H225     H      0.822150000000     0.355410000000     0.437010000000     0.021034   
H226     H      0.655590000000     0.069900000000     0.479370000000     0.0263922  
H227     H      0.786190000000     0.262180000000     0.500680000000     0.038273   
H228     H      0.733140000000     0.166820000000     0.439940000000     0.0366494  
H229     H      0.712540000000     0.119110000000     0.472510000000     0.0525286  
H230     H      0.783460000000     0.220100000000     0.423030000000     0.037834   
H231     H      0.675010000000     0.175660000000     0.510780000000     0.0533609  
H232     H      0.777530000000     0.298030000000     0.448580000000     0.0522156  
H233     H      0.857700000000     0.267550000000     0.445020000000     0.0537509  
H234     H      0.737110000000     0.208620000000     0.518530000000     0.0355679  
H235     H      0.902710000000     0.326030000000     0.433920000000     0.0268597  
H236     H      0.620290000000     0.158400000000     0.536090000000     0.0291559  
H237     H      0.060770000000     0.632390000000     0.521650000000     0.0267913  
H238     H      0.349380000000     0.826470000000     0.441880000000     0.0266162  
H239     H      0.174070000000     0.739510000000     0.526590000000     0.0375891  
H240     H      0.235860000000     0.733810000000     0.445500000000     0.0359178  
H241     H      0.295980000000     0.774550000000     0.454080000000     0.0526788  
H242     H      0.188990000000     0.682540000000     0.468390000000     0.0362262  
H243     H      0.239780000000     0.828920000000     0.462950000000     0.0562683  
H244     H      0.108820000000     0.689370000000     0.510780000000     0.0522468  
H245     H      0.186070000000     0.653490000000     0.520600000000     0.0513479  
H246     H      0.222180000000     0.791070000000     0.504550000000     0.0380437  
H247     H      0.137880000000     0.597290000000     0.531310000000     0.0203786  
H248     H      0.258230000000     0.889150000000     0.452550000000     0.034021   
H249     H      0.622380000000     0.551670000000     0.415760000000     0.0156002  
H250     H      0.825600000000     0.460950000000     0.509780000000     0.0170695  
H251     H      0.736250000000     0.554120000000     0.425930000000     0.036517   
H252     H      0.735390000000     0.487760000000     0.517800000000     0.0356546  
H253     H      0.772690000000     0.467370000000     0.502920000000     0.051452   
H254     H      0.678580000000     0.481900000000     0.494880000000     0.0368949  
H255     H      0.839370000000     0.574100000000     0.489780000000     0.0539441  
H256     H      0.682710000000     0.562910000000     0.434020000000     0.0481751  
H257     H      0.644270000000     0.456760000000     0.447950000000     0.0514762  
H258     H      0.793280000000     0.559470000000     0.448500000000     0.0361586  
H259     H      0.584400000000     0.446380000000     0.429790000000     0.0230651  
H260     H      0.906160000000     0.609750000000     0.489900000000     0.030235   
H261     H      0.390890000000     0.536160000000     0.540600000000     0.0258039  
H262     H      0.079460000000     0.415620000000     0.470810000000     0.0225043  
H263     H      0.293320000000     0.518160000000     0.487550000000     0.0391104  
H264     H      0.176280000000     0.446010000000     0.532400000000     0.0366134  
H265     H      0.135850000000     0.420630000000     0.492990000000     0.0526079  
H266     H      0.232090000000     0.452160000000     0.558050000000     0.0368217  
H267     H      0.191600000000     0.522950000000     0.457310000000     0.0527182  
H268     H      0.335060000000     0.539360000000     0.534330000000     0.0528682  
H269     H      0.274360000000     0.431650000000     0.544570000000     0.0535939  
H270     H      0.237920000000     0.510880000000     0.461270000000     0.0356405  
H271     H      0.330320000000     0.429490000000     0.549730000000     0.0195251  
H272     H      0.171710000000     0.553860000000     0.419580000000     0.0294912  
H273     H      0.959950000000     0.442680000000     0.615820000000     0.0210506  
H274     H      0.972020000000     0.532220000000     0.840770000000     0.0275533  
H275     H      0.009140000000     0.479880000000     0.702080000000     0.0422409  
H276     H      0.934970000000     0.517770000000     0.744220000000     0.0366741  
H277     H      0.973550000000     0.539930000000     0.789210000000     0.0527565  
H278     H      0.936030000000     0.520710000000     0.691880000000     0.0373648  
H279     H      0.959500000000     0.441250000000     0.787600000000     0.054742   
H280     H      0.961120000000     0.446880000000     0.666290000000     0.0509605  
H281     H      0.976400000000     0.547000000000     0.648840000000     0.0518275  
H282     H      0.008050000000     0.476900000000     0.754000000000     0.0430132  
H283     H      0.974890000000     0.542090000000     0.597610000000     0.0256747  
H284     H      0.945950000000     0.395250000000     0.824980000000     0.031137   
H285     H      0.015710000000     0.522510000000     0.338420000000     0.027893   
H286     H      0.007800000000     0.431650000000     0.114400000000     0.027071   
H287     H      0.972940000000     0.490540000000     0.250090000000     0.0370689  
H288     H      0.044200000000     0.447410000000     0.210950000000     0.0371311  
H289     H      0.007580000000     0.426150000000     0.166050000000     0.0534524  
H290     H      0.040950000000     0.444260000000     0.263080000000     0.0393131  
H291     H      0.023520000000     0.525930000000     0.164600000000     0.0561986  
H292     H      0.019670000000     0.520630000000     0.288200000000     0.0524912  
H293     H      0.996320000000     0.417900000000     0.303740000000     0.044083   
H294     H      0.975920000000     0.493490000000     0.198430000000     0.0365645  
H295     H      0.992640000000     0.420430000000     0.354670000000     0.028227   
H296     H      0.036620000000     0.570460000000     0.125600000000     0.031452   
H297     H      0.605120000000     0.134220000000     0.924470000000     0.0224503  
H298     H      0.912240000000     0.331040000000     0.918820000000     0.0232723  
H299     H      0.717580000000     0.200570000000     0.955090000000     0.0371973  
H300     H      0.802940000000     0.233030000000     0.878440000000     0.0367267  
H301     H      0.865080000000     0.273280000000     0.912580000000     0.0519092  
H302     H      0.747540000000     0.177980000000     0.879380000000     0.0372656  
H303     H      0.784190000000     0.303330000000     0.912430000000     0.0562764  
H304     H      0.663420000000     0.182710000000     0.918680000000     0.051542   
H305     H      0.709680000000     0.119200000000     0.912200000000     0.0516079  
H306     H      0.771940000000     0.254750000000     0.954030000000     0.0376849  
H307     H      0.649850000000     0.070070000000     0.918120000000     0.0257808  
H308     H      0.789420000000     0.359560000000     0.910340000000     0.0343333  
H309     H      0.354160000000     0.828460000000     0.008320000000     0.0190289  
H310     H      0.059740000000     0.623380000000     0.042690000000     0.0267423  
H311     H      0.233670000000     0.769720000000     0.985330000000     0.0382352  
H312     H      0.175830000000     0.723440000000     0.078370000000     0.037463   
H313     H      0.103080000000     0.682340000000     0.047460000000     0.0529752  
H314     H      0.228820000000     0.780000000000     0.074410000000     0.0378168  
H315     H      0.188300000000     0.664340000000     0.029210000000     0.0556071  
H316     H      0.295870000000     0.780830000000     0.015950000000     0.0509736  
H317     H      0.257650000000     0.844670000000     0.040090000000     0.0525008  
H318     H      0.181520000000     0.713840000000     0.989320000000     0.0377349  
H319     H      0.317440000000     0.893250000000     0.031760000000     0.026825   
H320     H      0.189400000000     0.611620000000     0.026430000000     0.031212   
H321     H      0.637990000000     0.512470000000     0.948410000000     0.018929   
H322     H      0.838220000000     0.419110000000     0.050650000000     0.0178413  
H323     H      0.711580000000     0.502940000000     0.022140000000     0.036155   
H324     H      0.747400000000     0.419930000000     0.003790000000     0.0392595  
H325     H      0.778660000000     0.413610000000     0.046830000000     0.052809   
H326     H      0.692090000000     0.416770000000     0.980550000000     0.0374372  
H327     H      0.825850000000     0.520760000000     0.035920000000     0.0538711  
H328     H      0.691780000000     0.512510000000     0.971290000000     0.0493853  
H329     H      0.630470000000     0.405690000000     0.990080000000     0.0518173  
H330     H      0.766770000000     0.505790000000     0.046140000000     0.0351052  
H331     H      0.576690000000     0.406650000000     0.967470000000     0.0243002  
H332     H      0.889320000000     0.565350000000     0.041510000000     0.0308329  
H333     H      0.331390000000     0.462750000000     0.020140000000     0.0201311  
H334     H      0.129370000000     0.549640000000     0.916090000000     0.0190956  
H335     H      0.274310000000     0.487060000000     0.943200000000     0.0380327  
H336     H      0.222720000000     0.553780000000     0.972660000000     0.0376621  
H337     H      0.190670000000     0.561880000000     0.928980000000     0.0506257  
H338     H      0.279630000000     0.559430000000     0.996140000000     0.0372643  
H339     H      0.157860000000     0.457280000000     0.931170000000     0.0540177  
H340     H      0.279970000000     0.469930000000     0.002630000000     0.0514035  
H341     H      0.351450000000     0.573960000000     0.978750000000     0.0524981  
H342     H      0.218430000000     0.482090000000     0.919050000000     0.0357488  
H343     H      0.403230000000     0.565870000000     0.996450000000     0.0264693  
H344     H      0.100450000000     0.408880000000     0.917370000000     0.0308702  
H345     H      0.558150000000     0.629590000000     0.546880000000     0.0245203  
H346     H      0.861130000000     0.831800000000     0.525870000000     0.0233136  
H347     H      0.710450000000     0.698880000000     0.575530000000     0.0376536  
H348     H      0.708730000000     0.797400000000     0.520710000000     0.0367303  
H349     H      0.805280000000     0.783510000000     0.537440000000     0.0520932  
H350     H      0.653630000000     0.742830000000     0.521520000000     0.0378407  
H351     H      0.758090000000     0.845630000000     0.545140000000     0.054083   
H352     H      0.604940000000     0.685740000000     0.559280000000     0.0519909  
H353     H      0.684370000000     0.670370000000     0.524180000000     0.0513093  
H354     H      0.765060000000     0.753200000000     0.575490000000     0.0360984  
H355     H      0.638110000000     0.616000000000     0.511600000000     0.0153848  
H356     H      0.782140000000     0.906500000000     0.537720000000     0.0299849  
H357     H      0.325530000000     0.349970000000     0.445050000000     0.0268922  
H358     H      0.129510000000     0.083970000000     0.396040000000     0.019158   
H359     H      0.257090000000     0.257060000000     0.386140000000     0.0381572  
H360     H      0.269780000000     0.169950000000     0.451900000000     0.0369303  
H361     H      0.187210000000     0.133280000000     0.384380000000     0.0521166  
H362     H      0.320680000000     0.227160000000     0.447890000000     0.0383996  
H363     H      0.207150000000     0.154670000000     0.472910000000     0.0568825  
H364     H      0.281410000000     0.293690000000     0.434430000000     0.0534366  
H365     H      0.365450000000     0.279640000000     0.406130000000     0.0521403  
H366     H      0.206560000000     0.199700000000     0.389540000000     0.0375381  
H367     H      0.409570000000     0.337280000000     0.416100000000     0.0263331  
H368     H      0.173590000000     0.122370000000     0.516060000000     0.0313872  
H369     H      0.825070000000     0.974290000000     0.490740000000     0.0269671  
H370     H      0.580380000000     0.985270000000     0.384280000000     0.0237456  
H371     H      0.733210000000     0.992310000000     0.448940000000     0.0372952  
H372     H      0.644270000000     0.895760000000     0.395220000000     0.0368907  
H373     H      0.637940000000     0.986720000000     0.388070000000     0.0562529  
H374     H      0.705520000000     0.903700000000     0.407350000000     0.0367373  
H375     H      0.587970000000     0.884370000000     0.423100000000     0.0543612  
H376     H      0.763200000000     0.962940000000     0.480360000000     0.0514937  
H377     H      0.769700000000     0.947900000000     0.393060000000     0.0516591  
H378     H      0.672500000000     0.984450000000     0.436840000000     0.0389687  
H379     H      0.831470000000     0.959260000000     0.403960000000     0.0231501  
H380     H      0.524060000000     0.843140000000     0.431360000000     0.0318729  
H381     H      0.444330000000     0.082920000000     0.521660000000     0.0275754  
H382     H      0.137850000000     0.998560000000     0.548720000000     0.0233715  
H383     H      0.319770000000     0.063510000000     0.580880000000     0.0377974  
H384     H      0.266290000000     0.034010000000     0.482770000000     0.0352273  
H385     H      0.200390000000     0.016030000000     0.560790000000     0.0512705  
H386     H      0.327640000000     0.045490000000     0.494990000000     0.0366653  
H387     H      0.223680000000     0.048260000000     0.472070000000     0.0537356  
H388     H      0.398070000000     0.099370000000     0.523370000000     0.0529231  
H389     H      0.332690000000     0.005520000000     0.570980000000     0.0541683  
H390     H      0.258820000000     0.055330000000     0.568200000000     0.0353373  
H391     H      0.378110000000     0.989120000000     0.567250000000     0.0221413  
H392     H      0.186150000000     0.044040000000     0.428740000000     0.0294807  
H393     H      0.000670000000     0.631140000000     0.493800000000     0.0289497  
H394     H      0.962060000000     0.844830000000     0.428010000000     0.0258924  
H395     H      0.061380000000     0.745480000000     0.470870000000     0.0367655  
H396     H      0.991550000000     0.772630000000     0.390800000000     0.0317761  
H397     H      0.968050000000     0.796870000000     0.422000000000     0.0536814  
H398     H      0.987060000000     0.717300000000     0.396380000000     0.0317036  
H399     H      0.083420000000     0.855480000000     0.433250000000     0.0551913  
H400     H      0.012740000000     0.688470000000     0.485360000000     0.0519816  
H401     H      0.019790000000     0.685310000000     0.395200000000     0.0526926  
H402     H      0.065490000000     0.800750000000     0.465460000000     0.0365715  
H403     H      0.007570000000     0.627720000000     0.404250000000     0.0272528  
H404     H      0.123030000000     0.914950000000     0.442680000000     0.0320294  
H405     H      0.968240000000     0.332700000000     0.457570000000     0.0263036  
H406     H      0.898290000000     0.061160000000     0.511290000000     0.0240744  
H407     H      0.997550000000     0.254210000000     0.494100000000     0.036864   
H408     H      0.897250000000     0.156770000000     0.544140000000     0.0364584  
H409     H      0.891640000000     0.110510000000     0.514090000000     0.0528599  
H410     H      0.898040000000     0.211050000000     0.537320000000     0.0375798  
H411     H      0.003590000000     0.164900000000     0.542450000000     0.0621471  
H412     H      0.960740000000     0.277030000000     0.465330000000     0.0514079  
H413     H      0.937150000000     0.271800000000     0.553160000000     0.0509777  
H414     H      0.996620000000     0.200680000000     0.500570000000     0.0375205  
H415     H      0.944740000000     0.328220000000     0.544760000000     0.0251191  
H416     H      0.048740000000     0.145740000000     0.556910000000     0.0347379  
H417     H      0.012950000000     0.983760000000     0.620000000000     0.02462    
H418     H      0.934650000000     0.917960000000     0.847240000000     0.02562    
H419     H      0.990310000000     0.017100000000     0.700710000000     0.0358872  
H420     H      0.890700000000     0.917130000000     0.749010000000     0.0374297  
H421     H      0.930980000000     0.916100000000     0.795810000000     0.0529195  
H422     H      0.896170000000     0.919560000000     0.697130000000     0.0376873  
H423     H      0.936230000000     0.012190000000     0.783690000000     0.0548474  
H424     H      0.004150000000     0.980590000000     0.670440000000     0.056732   
H425     H      0.894130000000     0.959070000000     0.649740000000     0.0529289  
H426     H      0.984580000000     0.014930000000     0.752170000000     0.0357436  
H427     H      0.903770000000     0.963010000000     0.598950000000     0.027224   
H428     H      0.932030000000     0.046640000000     0.817180000000     0.0292425  
H429     H      0.954900000000     0.975210000000     0.334610000000     0.0193704  
H430     H      0.005910000000     0.940020000000     0.114040000000     0.0245968  
H431     H      0.073080000000     0.030090000000     0.257220000000     0.0370965  
H432     H      0.973110000000     0.943590000000     0.200490000000     0.0363067  
H433     H      0.008710000000     0.937910000000     0.165290000000     0.0531193  
H434     H      0.969260000000     0.940910000000     0.252160000000     0.036895   
H435     H      0.045140000000     0.043180000000     0.160790000000     0.0552077  
H436     H      0.961900000000     0.976180000000     0.284270000000     0.0514398  
H437     H      0.070780000000     0.993570000000     0.303750000000     0.0527035  
H438     H      0.077180000000     0.032600000000     0.205300000000     0.0370011  
H439     H      0.063050000000     0.992400000000     0.354500000000     0.026169   
H440     H      0.058790000000     0.085920000000     0.120760000000     0.0309488  
H441     H      0.852440000000     0.834910000000     0.936760000000     0.0262882  
H442     H      0.569850000000     0.634170000000     0.022610000000     0.0259156  
H443     H      0.779670000000     0.763710000000     0.008540000000     0.0377574  
H444     H      0.651700000000     0.722040000000     0.973710000000     0.0368959  
H445     H      0.616810000000     0.691390000000     0.013390000000     0.0525242  
H446     H      0.698720000000     0.774600000000     0.951900000000     0.0381146  
H447     H      0.696260000000     0.658090000000     0.024180000000     0.0542889  
H448     H      0.799260000000     0.781760000000     0.948910000000     0.0523599  
H449     H      0.750970000000     0.834590000000     0.978820000000     0.0531438  
H450     H      0.733010000000     0.712630000000     0.031880000000     0.0348245  
H451     H      0.804710000000     0.887220000000     0.967350000000     0.02681    
H452     H      0.691490000000     0.603900000000     0.044510000000     0.0305822  
H453     H      0.325670000000     0.356630000000     0.951010000000     0.0179761  
H454     H      0.162240000000     0.073010000000     0.975400000000     0.0296613  
H455     H      0.242010000000     0.247570000000     0.945960000000     0.0360811  
H456     H      0.280190000000     0.176540000000     0.012260000000     0.0369526  
H457     H      0.217510000000     0.124620000000     0.969790000000     0.0546717  
H458     H      0.326340000000     0.231480000000     0.992640000000     0.0380948  
H459     H      0.190580000000     0.163500000000     0.035960000000     0.0555107  
H460     H      0.280510000000     0.299990000000     0.961580000000     0.0500747  
H461     H      0.357250000000     0.267060000000     0.950810000000     0.0512097  
H462     H      0.196590000000     0.194000000000     0.966970000000     0.0398268  
H463     H      0.403030000000     0.325350000000     0.941100000000     0.0261709  
H464     H      0.144230000000     0.132710000000     0.073030000000     0.03125    
H465     H      0.645960000000     0.995940000000     0.959510000000     0.0273309  
H466     H      0.886120000000     0.976280000000     0.063760000000     0.0219225  
H467     H      0.765830000000     0.062630000000     0.043850000000     0.0372328  
H468     H      0.795130000000     0.980430000000     0.012040000000     0.0400654  
H469     H      0.829840000000     0.977180000000     0.061170000000     0.0559493  
H470     H      0.734900000000     0.974080000000     0.000990000000     0.0373955  
H471     H      0.882210000000     0.078830000000     0.024490000000     0.0533998  
H472     H      0.707290000000     0.006160000000     0.970030000000     0.0517364  
H473     H      0.700140000000     0.018640000000     0.057920000000     0.0522914  
H474     H      0.826770000000     0.069140000000     0.054830000000     0.0368645  
H475     H      0.638410000000     0.007910000000     0.046950000000     0.0269454  
H476     H      0.946130000000     0.117740000000     0.013740000000     0.0302932  
H477     H      0.025010000000     0.875940000000     0.929560000000     0.0241259  
H478     H      0.320400000000     0.970920000000     0.979330000000     0.0259444  
H479     H      0.128520000000     0.864310000000     0.903760000000     0.0378541  
H480     H      0.227150000000     0.975920000000     0.928860000000     0.0367461  
H481     H      0.258080000000     0.957040000000     0.969220000000     0.0524468  
H482     H      0.166990000000     0.968180000000     0.915580000000     0.0400955  
H483     H      0.251880000000     0.904620000000     0.897740000000     0.0553486  
H484     H      0.077210000000     0.867400000000     0.928410000000     0.0516627  
H485     H      0.126140000000     0.956330000000     0.870460000000     0.0534555  
H486     H      0.189580000000     0.872130000000     0.917440000000     0.0368749  
H487     H      0.074760000000     0.964750000000     0.873450000000     0.018823   
H488     H      0.294270000000     0.889240000000     0.881640000000     0.0315226  
H489     H      0.951270000000     0.827240000000     0.031720000000     0.01928    
H490     H      0.931190000000     0.593160000000     0.938900000000     0.0207019  
H491     H      0.979510000000     0.755050000000     0.008440000000     0.0357631  
H492     H      0.880120000000     0.656090000000     0.963550000000     0.0353505  
H493     H      0.918290000000     0.638530000000     0.939900000000     0.0525904  
H494     H      0.873000000000     0.705440000000     0.966450000000     0.035884   
H495     H      0.960540000000     0.650700000000     0.027280000000     0.054446   
H496     H      0.941340000000     0.770610000000     0.033760000000     0.0505347  
H497     H      0.904410000000     0.765960000000     0.944480000000     0.0522643  
H498     H      0.986890000000     0.706770000000     0.005080000000     0.0347377  
H499     H      0.914010000000     0.822360000000     0.943080000000     0.0261661  
H500     H      0.992450000000     0.627190000000     0.058620000000     0.0278805  
H501     H      0.044850000000     0.367490000000     0.015570000000     0.0176705  
H502     H      0.010430000000     0.131300000000     0.922030000000     0.0187275  
H503     H      0.032580000000     0.266400000000     0.010530000000     0.036748   
H504     H      0.068590000000     0.250780000000     0.919180000000     0.0359784  
H505     H      0.020370000000     0.187720000000     0.920720000000     0.0529405  
H506     H      0.063850000000     0.300940000000     0.923000000000     0.0359666  
H507     H      0.087910000000     0.202800000000     0.998300000000     0.0559338  
H508     H      0.061720000000     0.325020000000     0.012430000000     0.0504983  
H509     H      0.016210000000     0.313170000000     0.925230000000     0.0526279  
H510     H      0.038710000000     0.217360000000     0.006900000000     0.0377145  
H511     H      0.001100000000     0.356480000000     0.928600000000     0.0286633  
H512     H      0.113650000000     0.169010000000     0.024580000000     0.0291752  
N1       N      0.495990000000     0.467670000000     0.854030000000    -0.196291   
N2       N      0.507760000000     0.486040000000     0.611580000000    -0.193872   
N3       N      0.481920000000     0.497070000000     0.109360000000    -0.19691    
N4       N      0.456170000000     0.481920000000     0.347790000000    -0.194017   
N5       N      0.436120000000     0.590940000000     0.484520000000    -0.196182   
N6       N      0.425540000000     0.824970000000     0.489010000000    -0.19446    
N7       N      0.506040000000     0.121070000000     0.461910000000    -0.199358   
N8       N      0.516150000000     0.368540000000     0.477110000000    -0.194669   
N9       N      0.524740000000     0.994020000000     0.601820000000    -0.194145   
N10      N      0.510090000000     0.988510000000     0.843920000000    -0.191121   
N11      N      0.433660000000     0.959280000000     0.342720000000    -0.194571   
N12      N      0.454970000000     0.974320000000     0.100770000000    -0.191847   
N13      N      0.520520000000     0.879450000000     0.932320000000    -0.195454   
N14      N      0.509320000000     0.626130000000     0.955770000000    -0.190455   
N15      N      0.445200000000     0.083210000000     0.013550000000    -0.194476   
N16      N      0.460940000000     0.335490000000     0.007050000000    -0.19044    
N17      N      0.630670000000     0.093750000000     0.497660000000    -0.195364   
N18      N      0.866190000000     0.345160000000     0.436160000000    -0.193363   
N19      N      0.326700000000     0.857730000000     0.447760000000    -0.198074   
N20      N      0.095630000000     0.610570000000     0.525290000000    -0.193939   
N21      N      0.863390000000     0.513220000000     0.502290000000    -0.198025   
N22      N      0.598660000000     0.498320000000     0.422890000000    -0.197994   
N23      N      0.102710000000     0.466280000000     0.452060000000    -0.199695   
N24      N      0.364390000000     0.482630000000     0.543530000000    -0.19373    
N25      N      0.966050000000     0.482640000000     0.844690000000    -0.196227   
N26      N      0.967990000000     0.492320000000     0.602790000000    -0.194048   
N27      N      0.014050000000     0.481320000000     0.109080000000    -0.197247   
N28      N      0.003030000000     0.471340000000     0.350350000000    -0.185082   
N29      N      0.875240000000     0.349540000000     0.921030000000    -0.196562   
N30      N      0.623220000000     0.098300000000     0.922890000000    -0.191149   
N31      N      0.098280000000     0.610510000000     0.031110000000    -0.195728   
N32      N      0.340160000000     0.864820000000     0.018710000000    -0.191635   
N33      N      0.866390000000     0.472650000000     0.043220000000    -0.195801   
N34      N      0.603050000000     0.459850000000     0.957540000000    -0.196195   
N35      N      0.107060000000     0.496190000000     0.918060000000    -0.197917   
N36      N      0.371080000000     0.513350000000     0.007980000000    -0.193867   
N37      N      0.843150000000     0.867900000000     0.527520000000    -0.192774   
N38      N      0.594360000000     0.618740000000     0.527890000000    -0.192422   
N39      N      0.134330000000     0.092200000000     0.440500000000    -0.196548   
N40      N      0.371060000000     0.347710000000     0.431900000000    -0.191424   
N41      N      0.550990000000     0.935220000000     0.404050000000    -0.20156    
N42      N      0.833000000000     0.967520000000     0.448230000000    -0.191817   
N43      N      0.143270000000     0.011010000000     0.503220000000    -0.193803   
N44      N      0.413440000000     0.034310000000     0.543110000000    -0.193981   
N45      N      0.018890000000     0.878340000000     0.435180000000    -0.193483   
N46      N      0.003070000000     0.624860000000     0.449690000000    -0.187407   
N47      N      0.954940000000     0.085430000000     0.523200000000    -0.196826   
N48      N      0.957730000000     0.335130000000     0.500710000000    -0.190503   
N49      N      0.938970000000     0.966720000000     0.845860000000    -0.19488    
N50      N      0.959070000000     0.973740000000     0.605530000000    -0.192325   
N51      N      0.023010000000     0.992790000000     0.106440000000    -0.19306    
N52      N      0.008440000000     0.983750000000     0.348520000000    -0.191213   
N53      N      0.605580000000     0.613190000000     0.027300000000    -0.198161   
N54      N      0.833090000000     0.864830000000     0.952310000000    -0.192748   
N55      N      0.142110000000     0.088590000000     0.007400000000    -0.19605    
N56      N      0.368210000000     0.345310000000     0.946690000000    -0.194336   
N57      N      0.916560000000     0.025820000000     0.043320000000    -0.201045   
N58      N      0.637290000000     0.000900000000     0.002440000000    -0.191602   
N59      N      0.323320000000     0.946790000000     0.944160000000    -0.194664   
N60      N      0.047530000000     0.921850000000     0.902840000000    -0.195006   
N61      N      0.954730000000     0.596080000000     0.982150000000    -0.197053   
N62      N      0.935040000000     0.829560000000     0.986920000000    -0.195073   
N63      N      0.041590000000     0.133360000000     0.961790000000    -0.198235   
N64      N      0.021630000000     0.365120000000     0.972390000000    -0.195146   
O1       O      0.101570000000     0.042170000000     0.985290000000    -0.384096   
O2       O      0.081040000000     0.063100000000     0.015160000000    -0.363403   
O3       O      0.959700000000     0.997730000000     0.884990000000    -0.371145   
O4       O      0.943630000000     0.942750000000     0.891060000000    -0.376457   
O5       O      0.013890000000     0.082820000000     0.942440000000    -0.380185   
O6       O      0.031880000000     0.085650000000     0.989660000000    -0.36681    
O7       O      0.051600000000     0.965450000000     0.922530000000    -0.386937   
O8       O      0.997860000000     0.917540000000     0.922230000000    -0.367049   
O9       O      0.100940000000     0.031930000000     0.929520000000    -0.332866   
O10      O      0.089230000000     0.969470000000     0.983010000000    -0.528832   
O11      O      0.020540000000     0.061090000000     0.891180000000    -0.517779   
O12      O      0.936660000000     0.040540000000     0.914350000000    -0.351111   
O13      O      0.033740000000     0.034750000000     0.962110000000    -0.497888   
O14      O      0.005020000000     0.986930000000     0.928310000000    -0.634104   
O15      O      0.960810000000     0.879520000000     0.007080000000    -0.383076   
O16      O      0.942150000000     0.876740000000     0.959900000000    -0.371009   
O17      O      0.936100000000     0.989510000000     0.035330000000    -0.352342   
O18      O      0.975050000000     0.043080000000     0.030900000000    -0.361011   
O19      O      0.870220000000     0.915730000000     0.969020000000    -0.38007    
O20      O      0.892260000000     0.894740000000     0.940200000000    -0.365665   
O21      O      0.005350000000     0.962580000000     0.066850000000    -0.365324   
O22      O      0.024270000000     0.018040000000     0.060520000000    -0.364933   
O23      O      0.948440000000     0.897760000000     0.057700000000    -0.519687   
O24      O      0.035720000000     0.923940000000     0.038840000000    -0.355354   
O25      O      0.862600000000     0.939350000000     0.015400000000    -0.34035    
O26      O      0.886910000000     0.998490000000     0.970450000000    -0.53565    
O27      O      0.937430000000     0.927300000000     0.988840000000    -0.629603   
O28      O      0.966370000000     0.975210000000     0.022150000000    -0.464164   
O29      O      0.006770000000     0.941020000000     0.974930000000    -0.494408   
O30      O      0.964740000000     0.021170000000     0.976070000000    -0.626737   
O31      O      0.036300000000     0.990100000000     0.009250000000    -0.632567   
O32      O      0.934710000000     0.971270000000     0.941640000000    -0.49389    
O33      O      0.982490000000     0.892360000000     0.455190000000    -0.385252   
O34      O      0.036170000000     0.933930000000     0.439610000000    -0.365223   
O35      O      0.885930000000     0.974320000000     0.433610000000    -0.371775   
O36      O      0.880170000000     0.975590000000     0.480810000000    -0.366647   
O37      O      0.974360000000     0.981430000000     0.383950000000    -0.387429   
O38      O      0.029620000000     0.985870000000     0.395780000000    -0.372648   
O39      O      0.896220000000     0.886660000000     0.505920000000    -0.376077   
O40      O      0.883670000000     0.924710000000     0.520310000000    -0.359436   
O41      O      0.906720000000     0.867190000000     0.454590000000    -0.33886    
O42      O      0.961510000000     0.875240000000     0.517410000000    -0.52973    
O43      O      0.900580000000     0.941560000000     0.394790000000    -0.519708   
O44      O      0.944520000000     0.028420000000     0.395190000000    -0.348718   
O45      O      0.973340000000     0.948220000000     0.438610000000    -0.501197   
O46      O      0.923350000000     0.945250000000     0.467410000000    -0.634286   
O47      O      0.994700000000     0.978670000000     0.570230000000    -0.384631   
O48      O      0.939970000000     0.975380000000     0.558030000000    -0.370914   
O49      O      0.081680000000     0.073970000000     0.461920000000    -0.366006   
O50      O      0.086070000000     0.040230000000     0.433230000000    -0.365138   
O51      O      0.990190000000     0.071670000000     0.501420000000    -0.379538   
O52      O      0.935400000000     0.030480000000     0.515590000000    -0.365527   
O53      O      0.088080000000     0.997560000000     0.518980000000    -0.365924   
O54      O      0.092980000000     0.994770000000     0.472100000000    -0.365063   
O55      O      0.067760000000     0.022490000000     0.561140000000    -0.52039    
O56      O      0.030520000000     0.936650000000     0.556310000000    -0.357969   
O57      O      0.059810000000     0.105890000000     0.490700000000    -0.325113   
O58      O      0.010610000000     0.084800000000     0.431890000000    -0.525895   
O59      O      0.997710000000     0.016240000000     0.515630000000    -0.637485   
O60      O      0.047410000000     0.018930000000     0.486380000000    -0.49209    
O61      O      0.963530000000     0.945780000000     0.519890000000    -0.500128   
O62      O      0.007910000000     0.019400000000     0.433820000000    -0.627354   
O63      O      0.015150000000     0.948830000000     0.490530000000    -0.628449   
O64      O      0.956190000000     0.015980000000     0.463500000000    -0.494174   
O65      O      0.016520000000     0.401080000000     0.998600000000    -0.381318   
O66      O      0.001400000000     0.400300000000     0.950740000000    -0.367628   
O67      O      0.888350000000     0.448180000000     0.018610000000    -0.383221   
O68      O      0.927460000000     0.498870000000     0.034560000000    -0.355957   
O69      O      0.890280000000     0.390090000000     0.950810000000    -0.379168   
O70      O      0.933940000000     0.392450000000     0.925430000000    -0.364586   
O71      O      0.012820000000     0.459680000000     0.067440000000    -0.375088   
O72      O      0.999280000000     0.501710000000     0.065810000000    -0.382575   
O73      O      0.971730000000     0.390120000000     0.048440000000    -0.353886   
O74      O      0.063460000000     0.447600000000     0.041120000000    -0.526692   
O75      O      0.888180000000     0.382510000000     0.015810000000    -0.530121   
O76      O      0.855820000000     0.425670000000     0.965880000000    -0.333939   
O77      O      0.960850000000     0.419240000000     0.982630000000    -0.505555   
O78      O      0.959560000000     0.454350000000     0.022100000000    -0.635264   
O79      O      0.082400000000     0.569500000000     0.001540000000    -0.381372   
O80      O      0.039890000000     0.566040000000     0.028830000000    -0.358193   
O81      O      0.965430000000     0.502560000000     0.886770000000    -0.375031   
O82      O      0.976580000000     0.459110000000     0.888080000000    -0.373163   
O83      O      0.958210000000     0.559190000000     0.955530000000    -0.377402   
O84      O      0.971150000000     0.557790000000     0.003370000000    -0.373332   
O85      O      0.066460000000     0.514400000000     0.922180000000    -0.359575   
O86      O      0.045380000000     0.460470000000     0.919740000000    -0.357712   
O87      O      0.103780000000     0.578150000000     0.948080000000    -0.521501   
O88      O      0.111780000000     0.518250000000     0.986420000000    -0.361199   
O89      O      0.999680000000     0.569710000000     0.906120000000    -0.346073   
O90      O      0.908760000000     0.508590000000     0.914280000000    -0.528077   
O91      O      0.013440000000     0.539480000000     0.971560000000    -0.629445   
O92      O      0.013680000000     0.504450000000     0.932380000000    -0.472976   
O93      O      0.033560000000     0.501160000000     0.014420000000    -0.500056   
O94      O      0.940110000000     0.458050000000     0.939580000000    -0.635135   
O95      O      0.034420000000     0.466400000000     0.975320000000    -0.627995   
O96      O      0.939430000000     0.492010000000     0.979120000000    -0.497134   
O97      O      0.960330000000     0.381600000000     0.516870000000    -0.368175   
O98      O      0.972610000000     0.382620000000     0.470840000000    -0.365652   
O99      O      0.881230000000     0.480130000000     0.485460000000    -0.388384   
O100     O      0.923510000000     0.526550000000     0.506380000000    -0.366082   
O101     O      0.882790000000     0.397470000000     0.447150000000    -0.37484    
O102     O      0.925550000000     0.386660000000     0.434260000000    -0.362766   
O103     O      0.967270000000     0.462840000000     0.567090000000    -0.381937   
O104     O      0.973380000000     0.514720000000     0.555930000000    -0.375081   
O105     O      0.914680000000     0.395500000000     0.549940000000    -0.343848   
O106     O      0.008370000000     0.426820000000     0.561590000000    -0.525299   
O107     O      0.847690000000     0.414780000000     0.480220000000    -0.515501   
O108     O      0.878030000000     0.463900000000     0.419180000000    -0.360711   
O109     O      0.938110000000     0.422850000000     0.480760000000    -0.499247   
O110     O      0.936480000000     0.466250000000     0.509500000000    -0.628499   
O111     O      0.078530000000     0.559350000000     0.511420000000    -0.386662   
O112     O      0.035500000000     0.571580000000     0.521010000000    -0.363723   
O113     O      0.000550000000     0.499470000000     0.385820000000    -0.369369   
O114     O      0.990700000000     0.446220000000     0.396150000000    -0.375988   
O115     O      0.997890000000     0.577340000000     0.433870000000    -0.373155   
O116     O      0.989820000000     0.578220000000     0.480620000000    -0.36248    
O117     O      0.068720000000     0.492620000000     0.445970000000    -0.347176   
O118     O      0.040290000000     0.437650000000     0.446840000000    -0.363289   
O119     O      0.118410000000     0.543910000000     0.483520000000    -0.519891   
O120     O      0.082160000000     0.482780000000     0.524150000000    -0.367909   
O121     O      0.044030000000     0.567000000000     0.400990000000    -0.335009   
O122     O      0.949650000000     0.527980000000     0.389860000000    -0.528062   
O123     O      0.023830000000     0.538080000000     0.470810000000    -0.628461   
O124     O      0.024440000000     0.494150000000     0.442590000000    -0.460633   
O125     O      0.011500000000     0.494880000000     0.522290000000    -0.491338   
O126     O      0.949500000000     0.465040000000     0.429250000000    -0.62895    
O127     O      0.013350000000     0.449640000000     0.493410000000    -0.625168   
O128     O      0.948100000000     0.510540000000     0.458750000000    -0.501549   
O129     O      0.378620000000     0.958640000000     0.929730000000    -0.36704    
O130     O      0.373460000000     0.966390000000     0.975290000000    -0.365927   
O131     O      0.484730000000     0.893060000000     0.953320000000    -0.379897   
O132     O      0.536970000000     0.935110000000     0.935820000000    -0.3609     
O133     O      0.394440000000     0.885680000000     0.999030000000    -0.382921   
O134     O      0.379920000000     0.921780000000     0.015040000000    -0.360386   
O135     O      0.474450000000     0.983300000000     0.879310000000    -0.375303   
O136     O      0.529820000000     0.988090000000     0.891550000000    -0.369318   
O137     O      0.403660000000     0.937490000000     0.886570000000    -0.333406   
O138     O      0.433970000000     0.021570000000     0.892640000000    -0.531286   
O139     O      0.410450000000     0.864410000000     0.953030000000    -0.519167   
O140     O      0.463370000000     0.877370000000     0.016580000000    -0.35498    
O141     O      0.421280000000     0.942570000000     0.963330000000    -0.495185   
O142     O      0.472680000000     0.946890000000     0.934730000000    -0.63202    
O143     O      0.568410000000     0.077680000000     0.941640000000    -0.380818   
O144     O      0.585340000000     0.041240000000     0.929860000000    -0.363588   
O145     O      0.491210000000     0.979630000000     0.065770000000    -0.37967    
O146     O      0.436580000000     0.976420000000     0.053030000000    -0.370166   
O147     O      0.583910000000     0.993700000000     0.016840000000    -0.370215   
O148     O      0.589970000000     0.991740000000     0.969810000000    -0.367155   
O149     O      0.481640000000     0.070030000000     0.992520000000    -0.374391   
O150     O      0.428790000000     0.027810000000     0.008830000000    -0.364214   
O151     O      0.556980000000     0.097550000000     0.991370000000    -0.520113   
O152     O      0.500400000000     0.085940000000     0.929400000000    -0.352918   
O153     O      0.565390000000     0.030250000000     0.052720000000    -0.346949   
O154     O      0.529430000000     0.942400000000     0.055960000000    -0.528638   
O155     O      0.544210000000     0.020360000000     0.981480000000    -0.632766   
O156     O      0.492610000000     0.015900000000     0.009820000000    -0.498454   
O157     O      0.503760000000     0.016990000000     0.928850000000    -0.498837   
O158     O      0.461490000000     0.945590000000     0.015710000000    -0.630364   
O159     O      0.450410000000     0.012510000000     0.957510000000    -0.629695   
O160     O      0.514660000000     0.950340000000     0.987030000000    -0.492744   
O161     O      0.484610000000     0.071490000000     0.442030000000    -0.372793   
O162     O      0.514120000000     0.079180000000     0.486010000000    -0.371132   
O163     O      0.363210000000     0.907250000000     0.466670000000    -0.37662    
O164     O      0.386510000000     0.887760000000     0.437560000000    -0.369282   
O165     O      0.409920000000     0.989980000000     0.524580000000    -0.384343   
O166     O      0.463490000000     0.038160000000     0.525040000000    -0.360009   
O167     O      0.450140000000     0.990460000000     0.381400000000    -0.365094   
O168     O      0.438980000000     0.936610000000     0.388170000000    -0.369183   
O169     O      0.422510000000     0.028330000000     0.405070000000    -0.34314    
O170     O      0.513200000000     0.058130000000     0.392440000000    -0.525509   
O171     O      0.367410000000     0.976370000000     0.466940000000    -0.530359   
O172     O      0.367480000000     0.919840000000     0.523640000000    -0.332121   
O173     O      0.453320000000     0.012380000000     0.473360000000    -0.497318   
O174     O      0.425410000000     0.962890000000     0.439880000000    -0.634258   
O175     O      0.528640000000     0.969740000000     0.411070000000    -0.354161   
O176     O      0.492410000000     0.915710000000     0.417240000000    -0.362198   
O177     O      0.507280000000     0.962800000000     0.562930000000    -0.380814   
O178     O      0.519170000000     0.016640000000     0.556000000000    -0.371098   
O179     O      0.453090000000     0.876300000000     0.506890000000    -0.370202   
O180     O      0.437640000000     0.871850000000     0.459250000000    -0.369566   
O181     O      0.592390000000     0.045090000000     0.477470000000    -0.38358    
O182     O      0.570030000000     0.063990000000     0.507610000000    -0.364065   
O183     O      0.582560000000     0.966950000000     0.473280000000    -0.531983   
O184     O      0.599520000000     0.026400000000     0.427980000000    -0.339657   
O185     O      0.535880000000     0.923300000000     0.529710000000    -0.358333   
O186     O      0.455790000000     0.897660000000     0.559420000000    -0.517818   
O187     O      0.503260000000     0.938870000000     0.471470000000    -0.624562   
O188     O      0.531180000000     0.989400000000     0.504620000000    -0.501978   
O189     O      0.496110000000     0.982320000000     0.424730000000    -0.468162   
O190     O      0.460070000000     0.969850000000     0.520030000000    -0.635904   
O191     O      0.523520000000     0.031330000000     0.457330000000    -0.628279   
O192     O      0.433690000000     0.921480000000     0.487050000000    -0.497861   
O193     O      0.469170000000     0.384050000000     0.023400000000    -0.369432   
O194     O      0.475180000000     0.382370000000     0.976330000000    -0.360275   
O195     O      0.389760000000     0.475510000000     0.005620000000    -0.385877   
O196     O      0.431930000000     0.529360000000     0.009640000000    -0.361724   
O197     O      0.387090000000     0.397510000000     0.959120000000    -0.384518   
O198     O      0.427420000000     0.386410000000     0.942010000000    -0.363944   
O199     O      0.482820000000     0.468020000000     0.073810000000    -0.372569   
O200     O      0.483830000000     0.517750000000     0.062100000000    -0.378526   
O201     O      0.432470000000     0.399700000000     0.062350000000    -0.339399   
O202     O      0.526280000000     0.433640000000     0.063520000000    -0.528393   
O203     O      0.351120000000     0.416130000000     0.987080000000    -0.512399   
O204     O      0.383380000000     0.469370000000     0.932980000000    -0.35543    
O205     O      0.445030000000     0.424020000000     0.989430000000    -0.497533   
O206     O      0.446830000000     0.468390000000     0.018730000000    -0.629844   
O207     O      0.587440000000     0.562640000000     0.011110000000    -0.382389   
O208     O      0.545470000000     0.573680000000     0.025290000000    -0.36681    
O209     O      0.496270000000     0.496790000000     0.890010000000    -0.377422   
O210     O      0.489300000000     0.444750000000     0.901030000000    -0.373922   
O211     O      0.501540000000     0.577840000000     0.939200000000    -0.370253   
O212     O      0.498060000000     0.580020000000     0.986680000000    -0.362829   
O213     O      0.572880000000     0.489870000000     0.948080000000    -0.357626   
O214     O      0.541090000000     0.434760000000     0.950080000000    -0.366078   
O215     O      0.622800000000     0.549550000000     0.976800000000    -0.519958   
O216     O      0.594830000000     0.489410000000     0.023170000000    -0.367434   
O217     O      0.541850000000     0.565050000000     0.902300000000    -0.33539    
O218     O      0.447420000000     0.526430000000     0.898050000000    -0.52427    
O219     O      0.528980000000     0.539120000000     0.973900000000    -0.633701   
O220     O      0.526820000000     0.494130000000     0.945080000000    -0.469191   
O221     O      0.522530000000     0.498450000000     0.025770000000    -0.49618    
O222     O      0.450950000000     0.464260000000     0.937180000000    -0.626743   
O223     O      0.521310000000     0.452030000000     0.996680000000    -0.627881   
O224     O      0.452600000000     0.510980000000     0.966680000000    -0.491856   
O225     O      0.509680000000     0.403880000000     0.503160000000    -0.372202   
O226     O      0.500170000000     0.406260000000     0.454610000000    -0.372129   
O227     O      0.384940000000     0.454300000000     0.522440000000    -0.381391   
O228     O      0.424870000000     0.506260000000     0.535820000000    -0.360542   
O229     O      0.385810000000     0.390560000000     0.459200000000    -0.381388   
O230     O      0.428390000000     0.393410000000     0.432200000000    -0.366772   
O231     O      0.509370000000     0.466090000000     0.569960000000    -0.382659   
O232     O      0.495770000000     0.508230000000     0.568090000000    -0.380114   
O233     O      0.477480000000     0.398790000000     0.555240000000    -0.337365   
O234     O      0.565360000000     0.460050000000     0.538880000000    -0.526188   
O235     O      0.387370000000     0.388910000000     0.524320000000    -0.532917   
O236     O      0.350530000000     0.425650000000     0.471290000000    -0.333768   
O237     O      0.457390000000     0.423720000000     0.486930000000    -0.499718   
O238     O      0.457340000000     0.460410000000     0.525600000000    -0.632527   
O239     O      0.577630000000     0.576450000000     0.499540000000    -0.387244   
O240     O      0.536300000000     0.573610000000     0.527880000000    -0.365571   
O241     O      0.456580000000     0.502800000000     0.389490000000    -0.379478   
O242     O      0.468030000000     0.459380000000     0.391110000000    -0.376349   
O243     O      0.444220000000     0.556280000000     0.458250000000    -0.367908   
O244     O      0.463740000000     0.561040000000     0.504910000000    -0.37233    
O245     O      0.557000000000     0.516040000000     0.422420000000    -0.359227   
O246     O      0.537570000000     0.462370000000     0.420380000000    -0.360763   
O247     O      0.598050000000     0.581620000000     0.445870000000    -0.524998   
O248     O      0.606910000000     0.523800000000     0.486970000000    -0.363723   
O249     O      0.493170000000     0.572420000000     0.409820000000    -0.346267   
O250     O      0.402610000000     0.510990000000     0.414650000000    -0.525427   
O251     O      0.507840000000     0.543880000000     0.472290000000    -0.631732   
O252     O      0.506830000000     0.507030000000     0.434020000000    -0.475109   
O253     O      0.530810000000     0.507810000000     0.515680000000    -0.494551   
O254     O      0.433620000000     0.459860000000     0.443630000000    -0.635111   
O255     O      0.530040000000     0.471350000000     0.477010000000    -0.625382   
O256     O      0.434890000000     0.495380000000     0.482450000000    -0.497147   
S1       S      0.511050000000     0.414760000000     0.865970000000    -0.0344693  
S2       S      0.514220000000     0.457040000000     0.125560000000    -0.045059   
S3       S      0.421420000000     0.596360000000     0.425200000000    -0.0373132  
S4       S      0.438130000000     0.099590000000     0.434340000000    -0.0448462  
S5       S      0.557960000000     0.063680000000     0.595090000000    -0.0327337  
S6       S      0.405900000000     0.003090000000     0.338320000000    -0.0368194  
S7       S      0.594500000000     0.919110000000     0.940760000000    -0.0372404  
S8       S      0.371050000000     0.041750000000     0.007610000000    -0.045025   
S9       S      0.606660000000     0.126580000000     0.528130000000    -0.035169   
S10      S      0.292230000000     0.895380000000     0.447650000000    -0.0561399  
S11      S      0.909750000000     0.581530000000     0.494880000000    -0.0376145  
S12      S      0.136970000000     0.528120000000     0.421380000000    -0.0487791  
S13      S      0.950170000000     0.416160000000     0.845120000000    -0.037072   
S14      S      0.031210000000     0.548260000000     0.106310000000    -0.0293237  
S15      S      0.826160000000     0.373160000000     0.914620000000    -0.0478308  
S16      S      0.152470000000     0.594510000000     0.026840000000    -0.0591022  
S17      S      0.900100000000     0.541560000000     0.043430000000    -0.0283948  
S18      S      0.084650000000     0.428920000000     0.913410000000    -0.0326444  
S19      S      0.814700000000     0.910250000000     0.531490000000    -0.0353738  
S20      S      0.146540000000     0.100310000000     0.498690000000    -0.0453468  
S21      S      0.514740000000     0.867670000000     0.423260000000    -0.0420043  
S22      S      0.156410000000     0.029080000000     0.444900000000    -0.0221448  
S23      S      0.093100000000     0.918820000000     0.442730000000    -0.0389291  
S24      S      0.024760000000     0.115180000000     0.547210000000    -0.0516177  
S25      S      0.934100000000     0.025500000000     0.839660000000    -0.0386653  
S26      S      0.048190000000     0.061850000000     0.101990000000    -0.0281478  
S27      S      0.654640000000     0.590270000000     0.043120000000    -0.0628546  
S28      S      0.128280000000     0.105330000000     0.057350000000    -0.0395375  
S29      S      0.954280000000     0.092490000000     0.022060000000    -0.0479557  
S30      S      0.319880000000     0.908260000000     0.901580000000    -0.0348114  
S31      S      0.987200000000     0.606490000000     0.037960000000    -0.035906   
S32      S      0.091580000000     0.143300000000     0.007890000000    -0.02897    
Zr1      Zr     0.053700000000     0.995190000000     0.961990000000     1.39197    
Zr2      Zr     0.983460000000     0.025150000000     0.929590000000     1.37096    
Zr3      Zr     0.987390000000     0.936520000000     0.021370000000     1.36779    
Zr4      Zr     0.917200000000     0.966870000000     0.988790000000     1.36163    
Zr5      Zr     0.015210000000     0.029420000000     0.009330000000     1.3811     
Zr6      Zr     0.957100000000     0.932760000000     0.941860000000     1.36669    
Zr7      Zr     0.952510000000     0.912970000000     0.481380000000     1.38002    
Zr8      Zr     0.945410000000     0.982000000000     0.425710000000     1.37535    
Zr9      Zr     0.026100000000     0.982780000000     0.528250000000     1.38649    
Zr10     Zr     0.018770000000     0.051600000000     0.472870000000     1.38462    
Zr11     Zr     0.035990000000     0.985440000000     0.447880000000     1.37142    
Zr12     Zr     0.934780000000     0.979090000000     0.505810000000     1.36614    
Zr13     Zr     0.006960000000     0.441980000000     0.019440000000     1.3907     
Zr14     Zr     0.914750000000     0.433100000000     0.984370000000     1.39102    
Zr15     Zr     0.059510000000     0.525220000000     0.969610000000     1.37327    
Zr16     Zr     0.966750000000     0.517280000000     0.935120000000     1.37434    
Zr17     Zr     0.987400000000     0.444870000000     0.938030000000     1.36819    
Zr18     Zr     0.985870000000     0.513810000000     0.015960000000     1.36879    
Zr19     Zr     0.968760000000     0.436740000000     0.525900000000     1.37296    
Zr20     Zr     0.907030000000     0.452620000000     0.463470000000     1.38488    
Zr21     Zr     0.054540000000     0.507730000000     0.488420000000     1.365      
Zr22     Zr     0.992090000000     0.523140000000     0.425840000000     1.36898    
Zr23     Zr     0.982010000000     0.435740000000     0.447350000000     1.36155    
Zr24     Zr     0.979540000000     0.524610000000     0.504330000000     1.36366    
Zr25     Zr     0.441820000000     0.977930000000     0.920870000000     1.37872    
Zr26     Zr     0.452710000000     0.912570000000     0.977990000000     1.38815    
Zr27     Zr     0.512510000000     0.050230000000     0.966480000000     1.38405    
Zr28     Zr     0.523430000000     0.984730000000     0.023910000000     1.3807     
Zr29     Zr     0.430370000000     0.976800000000     0.000740000000     1.3631     
Zr30     Zr     0.535020000000     0.986010000000     0.943940000000     1.36602    
Zr31     Zr     0.471110000000     0.017820000000     0.426250000000     1.38046    
Zr32     Zr     0.409230000000     0.957460000000     0.487670000000     1.3906     
Zr33     Zr     0.547150000000     0.994250000000     0.456830000000     1.36065    
Zr34     Zr     0.485510000000     0.934580000000     0.518450000000     1.37666    
Zr35     Zr     0.505260000000     0.024940000000     0.504980000000     1.37396    
Zr36     Zr     0.450990000000     0.927060000000     0.439350000000     1.37482    
Zr37     Zr     0.480950000000     0.440280000000     0.032420000000     1.3819     
Zr38     Zr     0.412590000000     0.453130000000     0.974460000000     1.37996    
Zr39     Zr     0.561740000000     0.510150000000     0.988930000000     1.36722    
Zr40     Zr     0.493020000000     0.522470000000     0.930900000000     1.38067    
Zr41     Zr     0.484840000000     0.435670000000     0.952790000000     1.3696     
Zr42     Zr     0.488350000000     0.526750000000     0.010340000000     1.3669     
Zr43     Zr     0.505110000000     0.448660000000     0.522190000000     1.3839     
Zr44     Zr     0.410800000000     0.436700000000     0.489570000000     1.38799    
Zr45     Zr     0.554330000000     0.530120000000     0.469780000000     1.3679     
Zr46     Zr     0.459550000000     0.519080000000     0.437450000000     1.38117    
Zr47     Zr     0.481420000000     0.447580000000     0.441190000000     1.37689    
Zr48     Zr     0.482760000000     0.519820000000     0.517780000000     1.37178    


