data_structure

_audit_creation_method RASPA-1.0
_audit_creation_date 2023-6-4
_audit_author_name 'Poobodin Mano'

_cell_length_a    33.907
_cell_length_b    37.5359
_cell_length_c    38.2375
_cell_angle_alpha 82.7484
_cell_angle_beta  96.3377
_cell_angle_gamma 119.443
_cell_volume      41975.7

_symmetry_cell_setting          triclinic
_symmetry_space_group_name_Hall 'P 1'
_symmetry_space_group_name_H-M  'P 1'
_symmetry_Int_Tables_number     1

_symmetry_equiv_pos_as_xyz 'x,y,z'

loop_
_atom_site_label
_atom_site_type_symbol
_atom_site_fract_x
_atom_site_fract_y
_atom_site_fract_z
_atom_site_charge
C1       C      0.137690000000     0.079760000000     0.990400000000     0.403013   
C2       C      0.932430000000     0.943770000000     0.851620000000     0.391812   
C3       C      0.030110000000     0.111240000000     0.954070000000     0.40427    
C4       C      0.040370000000     0.907710000000     0.904880000000     0.396561   
C5       C      0.944300000000     0.824880000000     0.990620000000     0.39885    
C6       C      0.940150000000     0.019920000000     0.050830000000     0.375861   
C7       C      0.835350000000     0.857740000000     0.955240000000     0.400909   
C8       C      0.029380000000     0.988980000000     0.095510000000     0.401337   
C9       C      0.025420000000     0.889640000000     0.425430000000     0.383702   
C10      C      0.844960000000     0.968000000000     0.443280000000     0.390115   
C11      C      0.025440000000     0.995680000000     0.350760000000     0.398995   
C12      C      0.857040000000     0.871920000000     0.519290000000     0.391979   
C13      C      0.960850000000     0.965830000000     0.595980000000     0.393301   
C14      C      0.138460000000     0.092460000000     0.434870000000     0.393211   
C15      C      0.958130000000     0.078500000000     0.515870000000     0.392075   
C16      C      0.147390000000     0.006660000000     0.502910000000     0.39497    
C17      C      0.037870000000     0.371610000000     0.960650000000     0.401051   
C18      C      0.881520000000     0.453580000000     0.045260000000     0.397547   
C19      C      0.898210000000     0.338580000000     0.929790000000     0.396144   
C20      C      0.029190000000     0.474670000000     0.096080000000     0.397224   
C21      C      0.089440000000     0.606910000000     0.012970000000     0.390349   
C22      C      0.960490000000     0.474000000000     0.845000000000     0.404572   
C23      C      0.942130000000     0.569190000000     0.982350000000     0.399726   
C24      C      0.096040000000     0.495740000000     0.889850000000     0.383267   
C25      C      0.963460000000     0.340770000000     0.492950000000     0.386761   
C26      C      0.875290000000     0.512620000000     0.496120000000     0.403786   
C27      C      0.875970000000     0.357000000000     0.420060000000     0.407384   
C28      C      0.963450000000     0.487700000000     0.588220000000     0.39873    
C29      C      0.098930000000     0.600310000000     0.524410000000     0.399851   
C30      C      0.011380000000     0.472680000000     0.349360000000     0.403879   
C31      C      0.009050000000     0.619340000000     0.444060000000     0.385263   
C32      C      0.096870000000     0.456500000000     0.437010000000     0.382676   
C33      C      0.334930000000     0.943570000000     0.948760000000     0.39426    
C34      C      0.527060000000     0.877010000000     0.942990000000     0.395375   
C35      C      0.353390000000     0.866560000000     0.031600000000     0.391533   
C36      C      0.521070000000     0.982700000000     0.857550000000     0.394615   
C37      C      0.625430000000     0.083310000000     0.926370000000     0.389351   
C38      C      0.462860000000     0.976530000000     0.100640000000     0.392103   
C39      C      0.639530000000     0.992000000000     0.011290000000     0.397162   
C40      C      0.454980000000     0.072660000000     0.018980000000     0.396223   
C41      C      0.528860000000     0.124070000000     0.461820000000     0.40157    
C42      C      0.339940000000     0.868260000000     0.457600000000     0.407147   
C43      C      0.452490000000     0.049400000000     0.543630000000     0.415447   
C44      C      0.440860000000     0.961940000000     0.355780000000     0.399957   
C45      C      0.541110000000     0.934010000000     0.401260000000     0.377362   
C46      C      0.542910000000     0.001930000000     0.601830000000     0.393617   
C47      C      0.443780000000     0.837910000000     0.496230000000     0.401194   
C48      C      0.641010000000     0.092140000000     0.499310000000     0.402708   
C49      C      0.465450000000     0.335590000000     0.007080000000     0.389069   
C50      C      0.370280000000     0.502710000000     0.994930000000     0.39567    
C51      C      0.381630000000     0.349250000000     0.930700000000     0.40683    
C52      C      0.456200000000     0.483390000000     0.096630000000     0.396286   
C53      C      0.593530000000     0.596140000000     0.033960000000     0.394315   
C54      C      0.504770000000     0.459900000000     0.860450000000     0.402197   
C55      C      0.511210000000     0.612750000000     0.952040000000     0.388145   
C56      C      0.602790000000     0.451670000000     0.956240000000     0.382775   
C57      C      0.533430000000     0.381920000000     0.470970000000     0.400675   
C58      C      0.373850000000     0.467400000000     0.543620000000     0.399426   
C59      C      0.391230000000     0.361820000000     0.422390000000     0.395628   
C60      C      0.515650000000     0.482040000000     0.604640000000     0.397721   
C61      C      0.590970000000     0.610740000000     0.534880000000     0.397863   
C62      C      0.471310000000     0.491620000000     0.351550000000     0.402516   
C63      C      0.443750000000     0.585350000000     0.486150000000     0.407114   
C64      C      0.600820000000     0.508820000000     0.405240000000     0.381096   
C65      C      0.474700000000     0.464770000000     0.802010000000     0.0896789  
C66      C      0.530270000000     0.442890000000     0.813130000000     0.0722204  
C67      C      0.478700000000     0.467670000000     0.765870000000    -0.0907965  
C68      C      0.515720000000     0.502090000000     0.695640000000    -0.0848858  
C69      C      0.535570000000     0.446260000000     0.776820000000    -0.0856744  
C70      C      0.518070000000     0.468610000000     0.714550000000     0.0336634  
C71      C      0.510930000000     0.460560000000     0.752930000000     0.0381984  
C72      C      0.516100000000     0.506700000000     0.659020000000     0.0696569  
C73      C      0.525550000000     0.448120000000     0.659310000000     0.0665197  
C74      C      0.524460000000     0.442150000000     0.696090000000    -0.0842021  
C75      C      0.438570000000     0.469960000000     0.813430000000     0.0241808  
C76      C      0.424150000000     0.451130000000     0.152600000000     0.0889262  
C77      C      0.468310000000     0.523730000000     0.143780000000     0.0698738  
C78      C      0.424640000000     0.453830000000     0.188690000000    -0.0889398  
C79      C      0.467130000000     0.465550000000     0.261820000000    -0.0858588  
C80      C      0.469340000000     0.527240000000     0.179890000000    -0.0853335  
C81      C      0.455850000000     0.493330000000     0.241630000000     0.0349473  
C82      C      0.449130000000     0.491810000000     0.202860000000     0.0373736  
C83      C      0.472390000000     0.465710000000     0.298320000000     0.0716216  
C84      C      0.456380000000     0.520840000000     0.295710000000     0.0687411  
C85      C      0.451040000000     0.521620000000     0.258830000000    -0.0853627  
C86      C      0.394810000000     0.411120000000     0.139750000000     0.0388378  
C87      C      0.446390000000     0.779070000000     0.528710000000     0.0843549  
C88      C      0.400820000000     0.771990000000     0.475380000000     0.0705824  
C89      C      0.437610000000     0.738590000000     0.528550000000    -0.0877867  
C90      C      0.412070000000     0.650480000000     0.525870000000    -0.085176   
C91      C      0.390900000000     0.731460000000     0.475080000000    -0.0878433  
C92      C      0.410200000000     0.675870000000     0.496410000000     0.0364488  
C93      C      0.411280000000     0.715000000000     0.500770000000     0.0377004  
C94      C      0.421630000000     0.619270000000     0.521780000000     0.0766153  
C95      C      0.421790000000     0.634250000000     0.459650000000     0.0727099  
C96      C      0.413310000000     0.666380000000     0.462840000000    -0.084495   
C97      C      0.475510000000     0.801370000000     0.557870000000     0.0406573  
C98      C      0.520440000000     0.180860000000     0.430970000000     0.0844446  
C99      C      0.569240000000     0.190120000000     0.482720000000     0.0707449  
C100     C      0.527750000000     0.220870000000     0.431220000000    -0.0891532  
C101     C      0.554800000000     0.295390000000     0.495180000000    -0.0850145  
C102     C      0.577420000000     0.230120000000     0.483200000000    -0.0871534  
C103     C      0.556800000000     0.284780000000     0.461830000000     0.0342186  
C104     C      0.555190000000     0.245340000000     0.458120000000     0.037356   
C105     C      0.549080000000     0.329180000000     0.497940000000     0.0684598  
C106     C      0.549270000000     0.343180000000     0.435680000000     0.0697341  
C107     C      0.555720000000     0.310050000000     0.432010000000    -0.0861993  
C108     C      0.490110000000     0.157590000000     0.402700000000     0.0362515  
C109     C      0.557010000000     0.038990000000     0.653950000000     0.0827239  
C110     C      0.551760000000     0.973080000000     0.659280000000     0.0657354  
C111     C      0.557430000000     0.037690000000     0.690860000000    -0.0887733  
C112     C      0.511290000000     0.002390000000     0.761380000000    -0.0822505  
C113     C      0.553110000000     0.971560000000     0.696090000000    -0.0876564  
C114     C      0.547210000000     0.999040000000     0.750450000000     0.0301719  
C115     C      0.554150000000     0.003350000000     0.712150000000     0.0385142  
C116     C      0.502960000000     0.996410000000     0.797130000000     0.0670861  
C117     C      0.566060000000     0.985370000000     0.812000000000     0.0672812  
C118     C      0.574650000000     0.990140000000     0.776130000000    -0.0824652  
C119     C      0.560670000000     0.076100000000     0.634490000000     0.0430624  
C120     C      0.490660000000     0.993450000000     0.160680000000     0.0851029  
C121     C      0.411740000000     0.952530000000     0.146830000000     0.0666226  
C122     C      0.482470000000     0.988030000000     0.196560000000    -0.0892488  
C123     C      0.439730000000     0.995410000000     0.261560000000    -0.0858448  
C124     C      0.402830000000     0.946330000000     0.182730000000    -0.0844167  
C125     C      0.431020000000     0.960480000000     0.245890000000     0.0349956  
C126     C      0.438560000000     0.964010000000     0.207900000000     0.0365105  
C127     C      0.440530000000     0.994520000000     0.298170000000     0.0719824  
C128     C      0.422550000000     0.924620000000     0.304370000000     0.0701644  
C129     C      0.421120000000     0.924400000000     0.267500000000    -0.0831803  
C130     C      0.536800000000     0.021850000000     0.151440000000     0.0442011  
C131     C      0.575940000000     0.848670000000     0.934200000000     0.0843648  
C132     C      0.495830000000     0.810280000000     0.925130000000     0.0701526  
C133     C      0.579010000000     0.812730000000     0.932210000000    -0.0867834  
C134     C      0.543120000000     0.715640000000     0.907230000000    -0.0842851  
C135     C      0.498020000000     0.774750000000     0.922420000000    -0.0875124  
C136     C      0.539040000000     0.735290000000     0.934280000000     0.0322607  
C137     C      0.539480000000     0.775200000000     0.927580000000     0.035879   
C138     C      0.534320000000     0.674720000000     0.913570000000     0.0651698  
C139     C      0.517710000000     0.672950000000     0.972550000000     0.0660026  
C140     C      0.526730000000     0.713640000000     0.967230000000    -0.0867765  
C141     C      0.617600000000     0.885820000000     0.941450000000     0.0433941  
C142     C      0.483530000000     0.137100000000     0.043650000000     0.0872739  
C143     C      0.407190000000     0.102070000000     0.020660000000     0.068108   
C144     C      0.480190000000     0.172630000000     0.045060000000    -0.0884504  
C145     C      0.450250000000     0.234600000000     0.991910000000    -0.0857558  
C146     C      0.403380000000     0.137710000000     0.020840000000    -0.0846499  
C147     C      0.441820000000     0.214110000000     0.025600000000     0.0324037  
C148     C      0.440750000000     0.173810000000     0.032030000000     0.0359833  
C149     C      0.458270000000     0.275080000000     0.986390000000     0.0668692  
C150     C      0.447650000000     0.275110000000     0.046560000000     0.0662862  
C151     C      0.440610000000     0.234730000000     0.053190000000    -0.0827647  
C152     C      0.525100000000     0.137710000000     0.058350000000     0.0372951  
C153     C      0.798220000000     0.304890000000     0.419090000000     0.0894709  
C154     C      0.857030000000     0.287220000000     0.427810000000     0.0719628  
C155     C      0.767880000000     0.266660000000     0.434740000000    -0.090888   
C156     C      0.721840000000     0.200940000000     0.492410000000    -0.0842899  
C157     C      0.827670000000     0.248910000000     0.444060000000    -0.0856207  
C158     C      0.752470000000     0.201250000000     0.470290000000     0.0335348  
C159     C      0.783360000000     0.239520000000     0.449780000000     0.037719   
C160     C      0.687060000000     0.163600000000     0.505950000000     0.0684544  
C161     C      0.715920000000     0.127640000000     0.479990000000     0.0697839  
C162     C      0.751010000000     0.164220000000     0.466100000000    -0.0849386  
C163     C      0.780300000000     0.331470000000     0.403090000000     0.0295767  
C164     C      0.177190000000     0.650880000000     0.530430000000     0.0870781  
C165     C      0.119940000000     0.670510000000     0.520760000000     0.0674104  
C166     C      0.209390000000     0.689880000000     0.517420000000    -0.0911239  
C167     C      0.259850000000     0.759000000000     0.463010000000    -0.0853994  
C168     C      0.151180000000     0.709610000000     0.507240000000    -0.0862035  
C169     C      0.228450000000     0.757760000000     0.484880000000     0.0344562  
C170     C      0.195770000000     0.718590000000     0.503220000000     0.0358877  
C171     C      0.294780000000     0.796790000000     0.450340000000     0.0706483  
C172     C      0.265190000000     0.831510000000     0.477250000000     0.0706333  
C173     C      0.229910000000     0.794490000000     0.490220000000    -0.0868262  
C174     C      0.193120000000     0.622570000000     0.545680000000     0.0321671  
C175     C      0.799280000000     0.493200000000     0.505910000000     0.0894889  
C176     C      0.847970000000     0.559130000000     0.478780000000     0.0696097  
C177     C      0.761340000000     0.495980000000     0.491230000000    -0.0900436  
C178     C      0.694500000000     0.488530000000     0.431890000000    -0.0855629  
C179     C      0.810510000000     0.562310000000     0.462750000000    -0.0850804  
C180     C      0.726970000000     0.526270000000     0.444370000000     0.035018   
C181     C      0.766790000000     0.528950000000     0.466820000000     0.0375203  
C182     C      0.653770000000     0.484070000000     0.415540000000     0.0667839  
C183     C      0.678740000000     0.554600000000     0.419180000000     0.0687183  
C184     C      0.719970000000     0.560180000000     0.435920000000    -0.0799261  
C185     C      0.792260000000     0.457560000000     0.529680000000     0.0282869  
C186     C      0.177550000000     0.488170000000     0.447430000000     0.0837486  
C187     C      0.129660000000     0.422480000000     0.475460000000     0.0700365  
C188     C      0.214880000000     0.490020000000     0.468480000000    -0.0910037  
C189     C      0.286420000000     0.497540000000     0.525450000000    -0.0840507  
C190     C      0.166110000000     0.423910000000     0.497300000000    -0.0844773  
C191     C      0.249330000000     0.459940000000     0.516370000000     0.0356196  
C192     C      0.209330000000     0.458300000000     0.494490000000     0.0378191  
C193     C      0.327360000000     0.499260000000     0.538820000000     0.0719419  
C194     C      0.293740000000     0.427030000000     0.539530000000     0.0761309  
C195     C      0.252650000000     0.424190000000     0.525740000000    -0.0836939  
C196     C      0.186190000000     0.520910000000     0.419780000000     0.0318283  
C197     C      0.939220000000     0.501240000000     0.789110000000     0.0849773  
C198     C      0.970730000000     0.456700000000     0.790620000000     0.0736494  
C199     C      0.937690000000     0.504770000000     0.752050000000    -0.087987   
C200     C      0.964520000000     0.522320000000     0.674100000000    -0.0840626  
C201     C      0.969360000000     0.459680000000     0.754050000000    -0.0853886  
C202     C      0.949690000000     0.485230000000     0.695330000000     0.0345982  
C203     C      0.952560000000     0.483700000000     0.734320000000     0.03775    
C204     C      0.966910000000     0.522720000000     0.637660000000     0.069251   
C205     C      0.937800000000     0.450570000000     0.643240000000     0.0696144  
C206     C      0.934500000000     0.449030000000     0.679220000000    -0.0854407  
C207     C      0.920790000000     0.522560000000     0.804980000000     0.0397757  
C208     C      0.022630000000     0.437380000000     0.153290000000     0.0859668  
C209     C      0.052480000000     0.509800000000     0.147470000000     0.0719458  
C210     C      0.024030000000     0.437280000000     0.190080000000    -0.0866192  
C211     C      0.035520000000     0.443880000000     0.269210000000    -0.0836607  
C212     C      0.055710000000     0.510660000000     0.183910000000    -0.0858813  
C213     C      0.033920000000     0.473800000000     0.243910000000     0.0359166  
C214     C      0.039280000000     0.473970000000     0.205730000000     0.0375494  
C215     C      0.027230000000     0.443330000000     0.304400000000     0.0720795  
C216     C      0.017730000000     0.502080000000     0.290300000000     0.0731013  
C217     C      0.024440000000     0.502780000000     0.255060000000    -0.0853275  
C218     C      0.001960000000     0.397700000000     0.139160000000     0.0406206  
C219     C      0.855020000000     0.288740000000     0.886630000000     0.0836658  
C220     C      0.851790000000     0.268930000000     0.948200000000     0.0703498  
C221     C      0.817640000000     0.249900000000     0.880100000000    -0.0873182  
C222     C      0.746450000000     0.144280000000     0.908620000000    -0.0837525  
C223     C      0.815940000000     0.230030000000     0.942390000000    -0.0869006  
C224     C      0.751880000000     0.184040000000     0.904170000000     0.0328136  
C225     C      0.797090000000     0.220760000000     0.908340000000     0.0360659  
C226     C      0.703080000000     0.110270000000     0.913190000000     0.0666349  
C227     C      0.670920000000     0.154330000000     0.908590000000     0.067726   
C228     C      0.713310000000     0.188660000000     0.902860000000    -0.0849249  
C229     C      0.873190000000     0.318320000000     0.856590000000     0.0373138  
C230     C      0.275140000000     0.835460000000     0.049430000000     0.0821868  
C231     C      0.309770000000     0.794800000000     0.044670000000     0.0669512  
C232     C      0.232280000000     0.799620000000     0.051070000000    -0.087312   
C233     C      0.155290000000     0.697050000000     0.064530000000    -0.0839207  
C234     C      0.268280000000     0.759060000000     0.047290000000    -0.0877903  
C235     C      0.185110000000     0.724790000000     0.039200000000     0.0327847  
C236     C      0.228670000000     0.761250000000     0.048410000000     0.0349756  
C237     C      0.120620000000     0.658220000000     0.054970000000     0.0663421  
C238     C      0.144170000000     0.675240000000     0.996280000000     0.0663903  
C239     C      0.177820000000     0.714060000000     0.004570000000    -0.0869326  
C240     C      0.276740000000     0.873740000000     0.054260000000     0.0410451  
C241     C      0.800730000000     0.414780000000     0.050910000000     0.0819005  
C242     C      0.838060000000     0.487320000000     0.046050000000     0.0684509  
C243     C      0.759620000000     0.413430000000     0.038510000000    -0.0888466  
C244     C      0.673610000000     0.414200000000     0.009140000000    -0.0831336  
C245     C      0.797160000000     0.486990000000     0.035120000000    -0.0848813  
C246     C      0.716740000000     0.449430000000     0.008180000000     0.0336635  
C247     C      0.757920000000     0.449880000000     0.027920000000     0.0350268  
C248     C      0.636420000000     0.414380000000     0.989360000000     0.0678769  
C249     C      0.682380000000     0.483600000000     0.968260000000     0.0680109  
C250     C      0.720590000000     0.483950000000     0.986340000000    -0.0862896  
C251     C      0.799170000000     0.376270000000     0.064300000000     0.0335458  
C252     C      0.153010000000     0.474810000000     0.890170000000     0.0838786  
C253     C      0.173960000000     0.542340000000     0.902290000000     0.0671633  
C254     C      0.194380000000     0.479430000000     0.905900000000    -0.088244   
C255     C      0.255330000000     0.480950000000     0.968660000000    -0.0857462  
C256     C      0.215570000000     0.547910000000     0.918230000000    -0.0816056  
C257     C      0.262780000000     0.515910000000     0.946350000000     0.0357885  
C258     C      0.224510000000     0.515030000000     0.922610000000     0.0367136  
C259     C      0.291530000000     0.478890000000     0.987700000000     0.0706285  
C260     C      0.342260000000     0.547220000000     0.967020000000     0.0683307  
C261     C      0.306410000000     0.550260000000     0.947080000000    -0.0834879  
C262     C      0.124780000000     0.438550000000     0.871460000000     0.0411733  
C263     C      0.614560000000     0.680860000000     0.543950000000     0.0839078  
C264     C      0.661840000000     0.651080000000     0.562530000000     0.0714406  
C265     C      0.652150000000     0.720480000000     0.546990000000    -0.0867438  
C266     C      0.743630000000     0.803450000000     0.554460000000    -0.0825236  
C267     C      0.698930000000     0.689560000000     0.567330000000    -0.0871941  
C268     C      0.737850000000     0.764750000000     0.548970000000     0.0321293  
C269     C      0.695530000000     0.725070000000     0.556460000000     0.0357901  
C270     C      0.784070000000     0.839490000000     0.545140000000     0.0656484  
C271     C      0.812070000000     0.799470000000     0.525070000000     0.066215   
C272     C      0.772890000000     0.763600000000     0.533900000000    -0.0846451  
C273     C      0.571500000000     0.677960000000     0.530850000000     0.0315247  
C274     C      0.202880000000     0.131540000000     0.397610000000     0.0842277  
C275     C      0.200760000000     0.153980000000     0.452400000000     0.0704315  
C276     C      0.242750000000     0.169030000000     0.390100000000    -0.0865439  
C277     C      0.341320000000     0.254710000000     0.402800000000    -0.0831195  
C278     C      0.240110000000     0.190750000000     0.445830000000    -0.0864411  
C279     C      0.295210000000     0.242580000000     0.404590000000     0.0335822  
C280     C      0.260500000000     0.199490000000     0.413870000000     0.0357449  
C281     C      0.374010000000     0.296470000000     0.404540000000     0.0676493  
C282     C      0.315790000000     0.313540000000     0.407010000000     0.0706282  
C283     C      0.282690000000     0.272920000000     0.404280000000    -0.086318   
C284     C      0.183950000000     0.103020000000     0.370500000000     0.0442412  
C285     C      0.613520000000     0.958240000000     0.378160000000     0.0850038  
C286     C      0.582810000000     0.898420000000     0.418080000000     0.0653828  
C287     C      0.656110000000     0.960330000000     0.382790000000    -0.0885765  
C288     C      0.725220000000     0.937800000000     0.451840000000    -0.0851627  
C289     C      0.625280000000     0.900210000000     0.423710000000    -0.0883083  
C290     C      0.709720000000     0.939050000000     0.416440000000     0.0319562  
C291     C      0.662930000000     0.932460000000     0.407070000000     0.032327   
C292     C      0.770590000000     0.948010000000     0.460390000000     0.066697   
C293     C      0.785420000000     0.959610000000     0.399710000000     0.0668851  
C294     C      0.740450000000     0.950010000000     0.390290000000    -0.0845394  
C295     C      0.608280000000     0.987400000000     0.352080000000     0.0377988  
C296     C      0.224780000000     0.031760000000     0.485970000000     0.0825195  
C297     C      0.207940000000     0.020380000000     0.546390000000     0.0667763  
C298     C      0.270610000000     0.044560000000     0.495980000000    -0.08882    
C299     C      0.335370000000     0.016310000000     0.557490000000    -0.0853373  
C300     C      0.253170000000     0.031960000000     0.556850000000    -0.0866126  
C301     C      0.331030000000     0.049890000000     0.541670000000     0.0307776  
C302     C      0.284960000000     0.044150000000     0.531540000000     0.0346959  
C303     C      0.377570000000     0.018150000000     0.560150000000     0.0683416  
C304     C      0.412710000000     0.087590000000     0.536510000000     0.0697978  
C305     C      0.370350000000     0.086370000000     0.532000000000    -0.0879884  
C306     C      0.213540000000     0.031930000000     0.448330000000     0.0457439  
C307     C      0.019380000000     0.679320000000     0.403970000000     0.0808485  
C308     C      0.021790000000     0.681120000000     0.466020000000     0.0640428  
C309     C      0.026060000000     0.719750000000     0.399080000000    -0.086167   
C310     C      0.994070000000     0.784300000000     0.409960000000    -0.087743   
C311     C      0.029610000000     0.721670000000     0.461730000000    -0.0853747  
C312     C      0.032900000000     0.781980000000     0.423060000000     0.0345586  
C313     C      0.031300000000     0.741290000000     0.428010000000     0.033531   
C314     C      0.993140000000     0.821180000000     0.409320000000     0.0638117  
C315     C      0.069780000000     0.855060000000     0.431180000000     0.0623849  
C316     C      0.071410000000     0.818030000000     0.433220000000    -0.0842079  
C317     C      0.013760000000     0.659880000000     0.372050000000     0.042897   
C318     C      0.981110000000     0.142130000000     0.540030000000     0.0842968  
C319     C      0.909090000000     0.107490000000     0.509600000000     0.0666474  
C320     C      0.977010000000     0.177690000000     0.538590000000    -0.0909678  
C321     C      0.940490000000     0.240950000000     0.540120000000    -0.0837621  
C322     C      0.904850000000     0.143240000000     0.506650000000    -0.084834   
C323     C      0.940600000000     0.219430000000     0.512820000000     0.0308781  
C324     C      0.939830000000     0.179200000000     0.520280000000     0.0358509  
C325     C      0.947130000000     0.281100000000     0.532940000000     0.0644367  
C326     C      0.955320000000     0.279520000000     0.472560000000     0.0642224  
C327     C      0.947500000000     0.239010000000     0.478670000000    -0.0848933  
C328     C      0.020370000000     0.142410000000     0.559570000000     0.0396814  
C329     C      0.924730000000     0.907880000000     0.800150000000     0.0838124  
C330     C      0.922390000000     0.970600000000     0.793640000000     0.0679352  
C331     C      0.925670000000     0.909270000000     0.763320000000    -0.0867669  
C332     C      0.906560000000     0.956670000000     0.677490000000    -0.083754   
C333     C      0.922570000000     0.972210000000     0.756930000000    -0.0861503  
C334     C      0.933310000000     0.946770000000     0.703110000000     0.0329545  
C335     C      0.925930000000     0.942180000000     0.741460000000     0.0364321  
C336     C      0.915650000000     0.962310000000     0.641690000000     0.0674298  
C337     C      0.977640000000     0.949640000000     0.656230000000     0.0637165  
C338     C      0.968930000000     0.943000000000     0.692000000000    -0.0838193  
C339     C      0.925760000000     0.872940000000     0.820270000000     0.042589   
C340     C      0.001920000000     0.960700000000     0.153560000000     0.0889637  
C341     C      0.066270000000     0.026960000000     0.145610000000     0.0707883  
C342     C      0.006360000000     0.963710000000     0.189990000000    -0.0856739  
C343     C      0.003770000000     0.002950000000     0.254790000000    -0.0769045  
C344     C      0.071330000000     0.030640000000     0.182140000000    -0.082508   
C345     C      0.040980000000     0.002920000000     0.242540000000     0.0333128  
C346     C      0.041000000000     0.998740000000     0.204570000000     0.0354372  
C347     C      0.999870000000     0.001370000000     0.290860000000     0.0618653  
C348     C      0.069460000000     0.000520000000     0.303390000000     0.0720658  
C349     C      0.074600000000     0.002430000000     0.267080000000    -0.0810328  
C350     C      0.961040000000     0.925960000000     0.140640000000     0.0366821  
C351     C      0.757600000000     0.823830000000     0.970520000000     0.0878317  
C352     C      0.789960000000     0.785930000000     0.952780000000     0.0677192  
C353     C      0.722640000000     0.788010000000     0.986060000000    -0.0884186  
C354     C      0.645140000000     0.704880000000     0.010460000000    -0.0841901  
C355     C      0.755100000000     0.749580000000     0.967620000000    -0.0857686  
C356     C      0.689930000000     0.713420000000     0.007420000000     0.0328425  
C357     C      0.722730000000     0.750770000000     0.986700000000     0.0357139  
C358     C      0.613710000000     0.666620000000     0.025600000000     0.0666727  
C359     C      0.670690000000     0.647070000000     0.037940000000     0.06848    
C360     C      0.703180000000     0.685190000000     0.023960000000    -0.0870004  
C361     C      0.754090000000     0.860980000000     0.968900000000     0.043087   
C362     C      0.189760000000     0.149810000000     0.004470000000     0.085606   
C363     C      0.210740000000     0.115980000000     0.967810000000     0.0687408  
C364     C      0.226430000000     0.187400000000     0.993360000000    -0.0887025  
C365     C      0.272740000000     0.258770000000     0.940310000000    -0.0877412  
C366     C      0.247530000000     0.152880000000     0.956520000000    -0.0863694  
C367     C      0.286330000000     0.229230000000     0.950570000000     0.0355164  
C368     C      0.253780000000     0.189260000000     0.967540000000     0.036879   
C369     C      0.304620000000     0.298290000000     0.929050000000     0.0718024  
C370     C      0.361770000000     0.278770000000     0.932980000000     0.0721385  
C371     C      0.330620000000     0.238610000000     0.944700000000    -0.0849252  
C372     C      0.163440000000     0.150420000000     0.031520000000     0.0408007  
C373     C      0.900360000000     0.059580000000     0.038730000000     0.0807716  
C374     C      0.867270000000     0.994250000000     0.071090000000     0.0663892  
C375     C      0.857830000000     0.058030000000     0.034330000000    -0.0899709  
C376     C      0.758330000000     0.019600000000     0.003130000000    -0.0838517  
C377     C      0.825060000000     0.992480000000     0.067970000000    -0.0873189  
C378     C      0.773330000000     0.017810000000     0.038540000000     0.0341969  
C379     C      0.819510000000     0.023470000000     0.047780000000     0.0343189  
C380     C      0.713320000000     0.010240000000     0.994450000000     0.0742266  
C381     C      0.698220000000     0.998830000000     0.055120000000     0.070344   
C382     C      0.742750000000     0.007150000000     0.064670000000    -0.0829884  
C383     C      0.938360000000     0.096420000000     0.024270000000     0.0358951  
C384     C      0.100110000000     0.910700000000     0.875440000000     0.0891569  
C385     C      0.071380000000     0.864710000000     0.926350000000     0.0647432  
C386     C      0.140910000000     0.909550000000     0.880920000000    -0.0886735  
C387     C      0.224990000000     0.899920000000     0.898270000000    -0.0836824  
C388     C      0.112480000000     0.863990000000     0.933220000000    -0.0896591  
C389     C      0.195940000000     0.897760000000     0.922700000000     0.0315288  
C390     C      0.148740000000     0.888750000000     0.911560000000     0.0353887  
C391     C      0.271140000000     0.915000000000     0.907530000000     0.0653781  
C392     C      0.260640000000     0.925360000000     0.964870000000     0.0667762  
C393     C      0.214150000000     0.910050000000     0.956550000000    -0.0817209  
C394     C      0.094110000000     0.934200000000     0.844250000000     0.0381019  
C395     C      0.954750000000     0.769070000000     0.021070000000     0.0842034  
C396     C      0.901080000000     0.757660000000     0.972310000000     0.0694764  
C397     C      0.946580000000     0.728720000000     0.021590000000    -0.0897231  
C398     C      0.910350000000     0.649530000000     0.959860000000    -0.0846965  
C399     C      0.891920000000     0.717210000000     0.972720000000    -0.0875088  
C400     C      0.913560000000     0.662760000000     0.993270000000     0.0328225  
C401     C      0.916040000000     0.702750000000     0.996620000000     0.036353   
C402     C      0.917160000000     0.616380000000     0.956750000000     0.0668495  
C403     C      0.927820000000     0.607780000000     0.018940000000     0.0690827  
C404     C      0.919990000000     0.640010000000     0.023060000000    -0.0871486  
C405     C      0.988870000000     0.793940000000     0.046840000000     0.0317342  
C406     C      0.021630000000     0.167710000000     0.922550000000     0.0910625  
C407     C      0.072240000000     0.178210000000     0.973230000000     0.0758368  
C408     C      0.028800000000     0.207730000000     0.922440000000    -0.0880675  
C409     C      0.054160000000     0.296150000000     0.921470000000    -0.0831611  
C410     C      0.080590000000     0.218410000000     0.973180000000    -0.0842644  
C411     C      0.059470000000     0.273120000000     0.951550000000     0.0344273  
C412     C      0.057350000000     0.233120000000     0.948510000000     0.0398657  
C413     C      0.047910000000     0.329440000000     0.925040000000     0.0723036  
C414     C      0.057230000000     0.320910000000     0.987320000000     0.0703368  
C415     C      0.062250000000     0.286620000000     0.984770000000    -0.0823631  
C416     C      0.990420000000     0.143820000000     0.894940000000     0.0353959  
H1       H      0.010210000000     0.972980000000     0.889840000000     0.209678   
H2       H      0.947640000000     0.035190000000     0.975740000000     0.203118   
H3       H      0.907690000000     0.875120000000     0.003890000000     0.195144   
H4       H      0.083450000000     0.993780000000     0.025790000000     0.199615   
H5       H      0.907970000000     0.030220000000     0.872760000000     0.152034   
H6       H      0.865450000000     0.003480000000     0.959700000000     0.208038   
H7       H      0.853030000000     0.896590000000     0.054250000000     0.139648   
H8       H      0.934250000000     0.849170000000     0.078600000000     0.201645   
H9       H      0.069460000000     0.899150000000     0.031900000000     0.149431   
H10      H      0.143190000000     0.975870000000     0.995040000000     0.20022    
H11      H      0.112600000000     0.040060000000     0.890420000000     0.133591   
H12      H      0.999740000000     0.069490000000     0.847320000000     0.202845   
H13      H      0.985720000000     0.866850000000     0.099300000000     0.215143   
H14      H      0.117630000000     0.936710000000     0.969380000000     0.202099   
H15      H      0.047050000000     0.069480000000     0.865300000000     0.193045   
H16      H      0.830480000000     0.974420000000     0.991510000000     0.217222   
H17      H      0.885970000000     0.919770000000     0.453640000000     0.195659   
H18      H      0.039350000000     0.050980000000     0.403480000000     0.192336   
H19      H      0.010140000000     0.035540000000     0.543550000000     0.195482   
H20      H      0.048830000000     0.926140000000     0.494610000000     0.201523   
H21      H      0.976850000000     0.062220000000     0.366410000000     0.134848   
H22      H      0.004820000000     0.119760000000     0.425640000000     0.208346   
H23      H      0.101090000000     0.111540000000     0.527390000000     0.132524   
H24      H      0.094090000000     0.052960000000     0.580130000000     0.190217   
H25      H      0.018230000000     0.903690000000     0.578670000000     0.142166   
H26      H      0.995110000000     0.845000000000     0.504500000000     0.194584   
H27      H      0.882430000000     0.845460000000     0.429370000000     0.129927   
H28      H      0.884140000000     0.910710000000     0.373900000000     0.188796   
H29      H      0.105540000000     0.016580000000     0.600360000000     0.204739   
H30      H      0.964230000000     0.844870000000     0.535850000000     0.197535   
H31      H      0.885360000000     0.949990000000     0.346940000000     0.20272    
H32      H      0.053920000000     0.129500000000     0.410450000000     0.197178   
H33      H      0.958250000000     0.429390000000     0.051830000000     0.202532   
H34      H      0.904880000000     0.424580000000     0.911450000000     0.202793   
H35      H      0.023420000000     0.572910000000     0.960560000000     0.199707   
H36      H      0.082950000000     0.462180000000     0.957640000000     0.207477   
H37      H      0.815050000000     0.389110000000     0.978330000000     0.146179   
H38      H      0.862450000000     0.473880000000     0.882390000000     0.208006   
H39      H      0.010530000000     0.586110000000     0.885390000000     0.133589   
H40      H      0.117360000000     0.612330000000     0.903620000000     0.195426   
H41      H      0.167930000000     0.564720000000     0.988010000000     0.139173   
H42      H      0.129580000000     0.484140000000     0.047730000000     0.17046    
H43      H      0.980330000000     0.354110000000     0.049440000000     0.134654   
H44      H      0.882600000000     0.340800000000     0.045030000000     0.199746   
H45      H      0.159830000000     0.618220000000     0.933310000000     0.195471   
H47      H      0.836430000000     0.327240000000     0.017540000000     0.208093   
H48      H      0.854540000000     0.487780000000     0.919810000000     0.209701   
H49      H      0.909930000000     0.457670000000     0.526420000000     0.20057    
H50      H      0.933720000000     0.454450000000     0.388340000000     0.195303   
H51      H      0.063760000000     0.580300000000     0.460420000000     0.199828   
H52      H      0.042570000000     0.426010000000     0.497750000000     0.204967   
H53      H      0.846630000000     0.442580000000     0.386230000000     0.14332    
H54      H      0.932220000000     0.552690000000     0.368990000000     0.214558   
H55      H      0.095620000000     0.586560000000     0.392490000000     0.134454   
H56      H      0.170340000000     0.580560000000     0.459950000000     0.202375   
H57      H      0.122630000000     0.500520000000     0.550080000000     0.145927   
H58      H      0.032830000000     0.398340000000     0.572130000000     0.202621   
H59      H      0.879570000000     0.370680000000     0.544600000000     0.131733   
H60      H      0.793350000000     0.405410000000     0.452610000000     0.210358   
H61      H      0.182230000000     0.552500000000     0.492520000000     0.209226   
H62      H      0.037240000000     0.437290000000     0.592320000000     0.205641   
H63      H      0.810440000000     0.382610000000     0.486650000000     0.200475   
H64      H      0.950360000000     0.535560000000     0.339370000000     0.206075   
H65      H      0.473530000000     0.914290000000     0.915890000000     0.194332   
H66      H      0.450950000000     0.916640000000     0.054740000000     0.190928   
H67      H      0.598740000000     0.042830000000     0.993850000000     0.198765   
H68      H      0.432300000000     0.027890000000     0.951840000000     0.198384   
H69      H      0.448660000000     0.845820000000     0.055110000000     0.131157   
H70      H      0.574900000000     0.939920000000     0.100600000000     0.208838   
H71      H      0.587840000000     0.063270000000     0.064120000000     0.141803   
H72      H      0.607870000000     0.121110000000     0.011180000000     0.196999   
H73      H      0.518080000000     0.096750000000     0.901600000000     0.14235    
H74      H      0.447930000000     0.038050000000     0.860880000000     0.201666   
H75      H      0.383190000000     0.891090000000     0.889120000000     0.12727    
H76      H      0.378720000000     0.834110000000     0.938950000000     0.188056   
H77      H      0.585200000000     0.147640000000     0.986990000000     0.209636   
H78      H      0.401540000000     0.024530000000     0.882350000000     0.19913    
H79      H      0.391160000000     0.804160000000     0.969100000000     0.20169    
H80      H      0.519790000000     0.906990000000     0.093130000000     0.195102   
H81      H      0.393950000000     0.956190000000     0.424200000000     0.196863   
H82      H      0.461080000000     0.972290000000     0.563330000000     0.189659   
H83      H      0.529030000000     0.914810000000     0.477100000000     0.200279   
H84      H      0.569100000000     0.075330000000     0.451040000000     0.194605   
H85      H      0.360600000000     0.899270000000     0.555660000000     0.134017   
H86      H      0.422650000000     0.877700000000     0.583570000000     0.191393   
H87      H      0.586350000000     0.942640000000     0.560910000000     0.141969   
H88      H      0.609710000000     0.945870000000     0.495670000000     0.19599    
H89      H      0.629130000000     0.056770000000     0.403770000000     0.139532   
H90      H      0.554350000000     0.086920000000     0.374470000000     0.19291    
H91      H      0.409290000000     0.052100000000     0.423780000000     0.141441   
H92      H      0.355450000000     0.009700000000     0.476910000000     0.198709   
H93      H      0.646820000000     0.976290000000     0.465570000000     0.208936   
H94      H      0.508050000000     0.088920000000     0.356600000000     0.213018   
H95      H      0.314670000000     0.961760000000     0.487240000000     0.203532   
H96      H      0.469420000000     0.879190000000     0.604500000000     0.210679   
H97      H      0.406750000000     0.449920000000     0.035650000000     0.205842   
H98      H      0.436630000000     0.445740000000     0.899670000000     0.200824   
H99      H      0.562530000000     0.573280000000     0.971390000000     0.199661   
H100     H      0.542740000000     0.421050000000     0.013500000000     0.202775   
H101     H      0.351110000000     0.438170000000     0.892910000000     0.139832   
H102     H      0.435180000000     0.541880000000     0.874550000000     0.214733   
H103     H      0.601260000000     0.577900000000     0.911400000000     0.129881   
H104     H      0.670970000000     0.573930000000     0.975970000000     0.193945   
H105     H      0.608380000000     0.490740000000     0.069120000000     0.145865   
H106     H      0.535630000000     0.401020000000     0.086250000000     0.163312   
H107     H      0.374950000000     0.363100000000     0.047280000000     0.132086   
H108     H      0.305220000000     0.373430000000     0.986270000000     0.197417   
H109     H      0.680960000000     0.550060000000     0.013050000000     0.201701   
H111     H      0.293650000000     0.397620000000     0.950140000000     0.199356   
H112     H      0.478320000000     0.558100000000     0.848430000000     0.212176   
H113     H      0.446310000000     0.439660000000     0.555200000000     0.20311    
H114     H      0.412840000000     0.448500000000     0.411760000000     0.192952   
H115     H      0.532810000000     0.589120000000     0.473020000000     0.198368   
H116     H      0.580240000000     0.469550000000     0.472550000000     0.200709   
H117     H      0.332180000000     0.425180000000     0.436950000000     0.131837   
H118     H      0.365960000000     0.504630000000     0.410840000000     0.198923   
H119     H      0.539100000000     0.604130000000     0.397490000000     0.132167   
H120     H      0.628380000000     0.627150000000     0.426690000000     0.193328   
H121     H      0.653820000000     0.546070000000     0.518670000000     0.142395   
H122     H      0.616280000000     0.453360000000     0.536580000000     0.199931   
H123     H      0.453160000000     0.369110000000     0.563360000000     0.127253   
H124     H      0.374210000000     0.342750000000     0.523820000000     0.194018   
H125     H      0.668030000000     0.627420000000     0.457080000000     0.202018   
H126     H      0.607490000000     0.465960000000     0.574300000000     0.204739   
H127     H      0.327560000000     0.347920000000     0.517960000000     0.203778   
H128     H      0.392970000000     0.535190000000     0.375770000000     0.205288   
H129     H      0.512920000000     0.532440000000     0.645520000000     0.028094   
H130     H      0.551520000000     0.434000000000     0.831220000000     0.0247994  
H131     H      0.526620000000     0.416000000000     0.709680000000     0.0519736  
H132     H      0.560200000000     0.439580000000     0.767750000000     0.0527757  
H133     H      0.512480000000     0.524250000000     0.708990000000     0.0536998  
H134     H      0.456680000000     0.475670000000     0.747820000000     0.0574594  
H135     H      0.529090000000     0.426130000000     0.645920000000     0.0274639  
H136     H      0.480960000000     0.443360000000     0.312620000000     0.0296045  
H137     H      0.486770000000     0.551790000000     0.127150000000     0.027201   
H138     H      0.442350000000     0.543610000000     0.244000000000     0.0519858  
H139     H      0.488070000000     0.557290000000     0.189920000000     0.0530316  
H140     H      0.472090000000     0.443730000000     0.249440000000     0.0561984  
H141     H      0.406360000000     0.426180000000     0.205890000000     0.058977   
H142     H      0.451870000000     0.542880000000     0.308160000000     0.0242835  
H143     H      0.424750000000     0.601480000000     0.545510000000     0.030603   
H144     H      0.385280000000     0.783580000000     0.454020000000     0.027863   
H145     H      0.412240000000     0.685190000000     0.439230000000     0.0532404  
H146     H      0.368840000000     0.713750000000     0.453850000000     0.0513608  
H147     H      0.408200000000     0.655740000000     0.552180000000     0.0539471  
H148     H      0.453820000000     0.726570000000     0.549000000000     0.0589938  
H149     H      0.426010000000     0.629140000000     0.433350000000     0.0276399  
H150     H      0.546110000000     0.335450000000     0.524150000000     0.0292626  
H151     H      0.586810000000     0.179700000000     0.503340000000     0.0307253  
H152     H      0.558480000000     0.303610000000     0.405820000000     0.0533027  
H153     H      0.600120000000     0.248580000000     0.503820000000     0.0532505  
H154     H      0.555210000000     0.276560000000     0.518980000000     0.0538489  
H155     H      0.510010000000     0.232010000000     0.411410000000     0.0567406  
H156     H      0.547410000000     0.361290000000     0.411740000000     0.0291122  
H157     H      0.474470000000     0.999160000000     0.804060000000     0.0248289  
H158     H      0.549320000000     0.946750000000     0.648320000000     0.0247139  
H159     H      0.602710000000     0.987200000000     0.768560000000     0.0530995  
H160     H      0.550890000000     0.944570000000     0.711790000000     0.0531323  
H161     H      0.489050000000     0.008820000000     0.742260000000     0.0525301  
H162     H      0.559280000000     0.063110000000     0.703060000000     0.0577919  
H163     H      0.588160000000     0.978700000000     0.831100000000     0.0294854  
H164     H      0.448500000000     0.022870000000     0.308870000000     0.0283368  
H165     H      0.383070000000     0.937610000000     0.128250000000     0.0304627  
H166     H      0.414520000000     0.896840000000     0.256130000000     0.0538414  
H167     H      0.368240000000     0.928130000000     0.190680000000     0.0550724  
H168     H      0.447520000000     0.023830000000     0.245590000000     0.0574308  
H169     H      0.510380000000     0.003030000000     0.215780000000     0.0628094  
H170     H      0.416400000000     0.896570000000     0.320350000000     0.0284906  
H171     H      0.537440000000     0.660400000000     0.891900000000     0.0274598  
H172     H      0.462350000000     0.807750000000     0.922250000000     0.0191899  
H173     H      0.522350000000     0.727670000000     0.988540000000     0.0545386  
H174     H      0.466850000000     0.746290000000     0.918560000000     0.0523233  
H175     H      0.551640000000     0.731320000000     0.881140000000     0.0534366  
H176     H      0.611590000000     0.813520000000     0.936290000000     0.0588494  
H177     H      0.507230000000     0.657430000000     0.998440000000     0.028465   
H178     H      0.465870000000     0.289790000000     0.959890000000     0.0286897  
H179     H      0.378500000000     0.075440000000     0.009830000000     0.0236178  
H180     H      0.434980000000     0.219980000000     0.079770000000     0.0555691  
H181     H      0.372230000000     0.137630000000     0.010650000000     0.0526293  
H182     H      0.452360000000     0.219880000000     0.970090000000     0.0530703  
H183     H      0.509140000000     0.200030000000     0.054630000000     0.0584672  
H184     H      0.446510000000     0.290000000000     0.068650000000     0.0315403  
H185     H      0.661890000000     0.164430000000     0.520530000000     0.0286476  
H186     H      0.891940000000     0.294590000000     0.426300000000     0.0298357  
H187     H      0.774630000000     0.163040000000     0.450000000000     0.0519684  
H188     H      0.840560000000     0.228040000000     0.453970000000     0.0529137  
H189     H      0.723190000000     0.229240000000     0.497610000000     0.0522545  
H190     H      0.732550000000     0.258490000000     0.435850000000     0.056575   
H191     H      0.714420000000     0.099390000000     0.474290000000     0.0293289  
H192     H      0.320100000000     0.796630000000     0.435460000000     0.0263259  
H193     H      0.085020000000     0.663800000000     0.520710000000     0.027883   
H194     H      0.205800000000     0.794990000000     0.506250000000     0.0506139  
H195     H      0.139580000000     0.731530000000     0.497870000000     0.0509944  
H196     H      0.258600000000     0.731020000000     0.456960000000     0.0513477  
H197     H      0.244680000000     0.697440000000     0.517580000000     0.0564856  
H198     H      0.266330000000     0.859370000000     0.483620000000     0.0204406  
H199     H      0.628520000000     0.453700000000     0.408320000000     0.0268723  
H200     H      0.881510000000     0.583480000000     0.472050000000     0.0266844  
H201     H      0.744810000000     0.590210000000     0.444000000000     0.0494024  
H202     H      0.816100000000     0.589030000000     0.444990000000     0.0513631  
H203     H      0.699680000000     0.461990000000     0.436000000000     0.0526145  
H204     H      0.727680000000     0.471280000000     0.497160000000     0.0544652  
H205     H      0.673520000000     0.581060000000     0.414370000000     0.0168079  
H206     H      0.356230000000     0.529200000000     0.542810000000     0.0286085  
H207     H      0.096580000000     0.395910000000     0.479590000000     0.020355   
H208     H      0.225010000000     0.394250000000     0.519980000000     0.0523772  
H209     H      0.159940000000     0.398470000000     0.516830000000     0.0514464  
H210     H      0.284780000000     0.525840000000     0.520430000000     0.052213   
H211     H      0.248300000000     0.515890000000     0.463980000000     0.0551877  
H212     H      0.295390000000     0.398670000000     0.544280000000     0.0205552  
H213     H      0.980310000000     0.552050000000     0.622110000000     0.027195   
H214     H      0.984550000000     0.437750000000     0.804220000000     0.0353855  
H215     H      0.921220000000     0.419550000000     0.694540000000     0.0553685  
H216     H      0.981850000000     0.443290000000     0.741260000000     0.0555501  
H217     H      0.976180000000     0.550970000000     0.685710000000     0.0530831  
H218     H      0.923860000000     0.523070000000     0.737050000000     0.057314   
H219     H      0.926470000000     0.421580000000     0.632260000000     0.0306255  
H220     H      0.028700000000     0.419760000000     0.323170000000     0.0289943  
H221     H      0.064200000000     0.538880000000     0.131570000000     0.0244505  
H222     H      0.020950000000     0.525580000000     0.236650000000     0.0535165  
H223     H      0.069850000000     0.540100000000     0.194700000000     0.0530745  
H224     H      0.043220000000     0.421050000000     0.262100000000     0.0539215  
H225     H      0.010510000000     0.408240000000     0.206080000000     0.0578846  
H226     H      0.010280000000     0.525210000000     0.297240000000     0.0245636  
H227     H      0.700520000000     0.080130000000     0.917990000000     0.0283244  
H228     H      0.863800000000     0.275180000000     0.975430000000     0.0245435  
H229     H      0.716310000000     0.218980000000     0.899840000000     0.0536848  
H230     H      0.800940000000     0.208220000000     0.964830000000     0.0541464  
H231     H      0.775740000000     0.139660000000     0.910270000000     0.0539845  
H232     H      0.803280000000     0.243140000000     0.853420000000     0.0580729  
H233     H      0.642320000000     0.159700000000     0.908860000000     0.0239535  
H234     H      0.099340000000     0.636600000000     0.075340000000     0.0260027  
H235     H      0.338940000000     0.790860000000     0.042220000000     0.0203547  
H236     H      0.200050000000     0.734800000000     0.984280000000     0.0517794  
H237     H      0.266840000000     0.729800000000     0.045730000000     0.0513969  
H238     H      0.160240000000     0.704350000000     0.091720000000     0.0530562  
H239     H      0.201840000000     0.801800000000     0.052830000000     0.0572194  
H240     H      0.141120000000     0.668110000000     0.969160000000     0.019782   
H241     H      0.603720000000     0.386870000000     0.991650000000     0.0231335  
H242     H      0.868160000000     0.517020000000     0.047870000000     0.0292536  
H243     H      0.752890000000     0.511420000000     0.982760000000     0.049021   
H244     H      0.797360000000     0.516100000000     0.030660000000     0.0499617  
H245     H      0.667660000000     0.386620000000     0.025580000000     0.0510531  
H246     H      0.729950000000     0.383720000000     0.035890000000     0.0539865  
H247     H      0.686910000000     0.511350000000     0.952480000000     0.0211194  
H248     H      0.284380000000     0.450300000000     0.003230000000     0.0243519  
H249     H      0.167410000000     0.567860000000     0.901210000000     0.0159085  
H250     H      0.313370000000     0.578320000000     0.930860000000     0.0502881  
H251     H      0.238840000000     0.576680000000     0.929320000000     0.0490166  
H252     H      0.221770000000     0.454510000000     0.970480000000     0.0554331  
H253     H      0.202440000000     0.454780000000     0.906080000000     0.0559176  
H254     H      0.376200000000     0.573090000000     0.964950000000     0.0276461  
H255     H      0.787390000000     0.868830000000     0.549540000000     0.0269243  
H256     H      0.667080000000     0.624550000000     0.567880000000     0.0157361  
H257     H      0.769910000000     0.734900000000     0.527900000000     0.0501492  
H258     H      0.731250000000     0.691440000000     0.576510000000     0.0512714  
H259     H      0.717290000000     0.805900000000     0.565850000000     0.0516722  
H260     H      0.648190000000     0.747370000000     0.539060000000     0.0556286  
H261     H      0.837520000000     0.795800000000     0.513500000000     0.0299933  
H262     H      0.409570000000     0.304730000000     0.405940000000     0.0274548  
H263     H      0.185850000000     0.149470000000     0.477390000000     0.029052   
H264     H      0.247350000000     0.264790000000     0.405000000000     0.0538175  
H265     H      0.253300000000     0.213360000000     0.465100000000     0.0541342  
H266     H      0.352180000000     0.231950000000     0.402900000000     0.0540914  
H267     H      0.258130000000     0.175380000000     0.365050000000     0.0586898  
H268     H      0.304510000000     0.335650000000     0.409170000000     0.0191499  
H269     H      0.781020000000     0.946860000000     0.488160000000     0.0279343  
H270     H      0.555220000000     0.874490000000     0.433150000000     0.0207573  
H271     H      0.729860000000     0.951310000000     0.362590000000     0.051955   
H272     H      0.628990000000     0.877410000000     0.442030000000     0.0516917  
H273     H      0.702760000000     0.930130000000     0.472910000000     0.0478941  
H274     H      0.684340000000     0.984910000000     0.368720000000     0.0583503  
H275     H      0.807820000000     0.967910000000     0.378440000000     0.025778   
H276     H      0.379770000000     0.991180000000     0.571250000000     0.0138365  
H277     H      0.184890000000     0.011030000000     0.567370000000     0.0250443  
H278     H      0.368050000000     0.112970000000     0.519750000000     0.0536832  
H279     H      0.263060000000     0.030590000000     0.584710000000     0.0526252  
H280     H      0.305830000000     0.987780000000     0.565510000000     0.0532232  
H281     H      0.294830000000     0.053070000000     0.475990000000     0.0537889  
H282     H      0.442360000000     0.115230000000     0.527110000000     0.0258152  
H283     H      0.961570000000     0.820910000000     0.400130000000     0.0297554  
H284     H      0.019780000000     0.667440000000     0.492910000000     0.028485   
H285     H      0.102190000000     0.817390000000     0.443360000000     0.0509948  
H286     H      0.032670000000     0.737110000000     0.484800000000     0.0506413  
H287     H      0.963740000000     0.757170000000     0.401680000000     0.0534967  
H288     H      0.026550000000     0.734330000000     0.372620000000     0.0583646  
H289     H      0.099670000000     0.881980000000     0.440350000000     0.0252605  
H290     H      0.946820000000     0.296490000000     0.554980000000     0.0277796  
H291     H      0.882660000000     0.081010000000     0.496890000000     0.0258279  
H292     H      0.948760000000     0.223660000000     0.456990000000     0.0520867  
H293     H      0.875320000000     0.143260000000     0.492590000000     0.0517398  
H294     H      0.935970000000     0.227010000000     0.567000000000     0.0529135  
H295     H      0.003910000000     0.204850000000     0.550170000000     0.0607924  
H296     H      0.961900000000     0.293660000000     0.445820000000     0.0279577  
H297     H      0.894070000000     0.969880000000     0.622760000000     0.027575   
H298     H      0.921160000000     0.995550000000     0.804120000000     0.0210392  
H299     H      0.990770000000     0.935890000000     0.710990000000     0.053829   
H300     H      0.922330000000     0.998060000000     0.740900000000     0.0520222  
H301     H      0.878650000000     0.959850000000     0.685030000000     0.0524346  
H302     H      0.927220000000     0.885100000000     0.751680000000     0.0577789  
H303     H      0.005920000000     0.946660000000     0.649170000000     0.0270887  
H304     H      0.969920000000     0.001010000000     0.298740000000     0.0243186  
H305     H      0.090530000000     0.052260000000     0.129010000000     0.0305981  
H306     H      0.103670000000     0.001970000000     0.258380000000     0.0573193  
H307     H      0.098020000000     0.058590000000     0.192620000000     0.0569064  
H308     H      0.977100000000     0.003230000000     0.236490000000     0.0505514  
H309     H      0.981610000000     0.939330000000     0.207000000000     0.0549262  
H310     H      0.095480000000     0.999050000000     0.321720000000     0.0362044  
H311     H      0.578750000000     0.659930000000     0.024970000000     0.028895   
H312     H      0.816320000000     0.783910000000     0.940910000000     0.0276879  
H313     H      0.738020000000     0.691510000000     0.024460000000     0.0497831  
H314     H      0.754810000000     0.720960000000     0.965470000000     0.0493627  
H315     H      0.633400000000     0.726130000000     0.999040000000     0.0525027  
H316     H      0.696730000000     0.789770000000     0.998850000000     0.0568861  
H317     H      0.681580000000     0.624710000000     0.047830000000     0.0215748  
H318     H      0.293320000000     0.321010000000     0.923360000000     0.0205561  
H319     H      0.206220000000     0.088760000000     0.957020000000     0.0307416  
H320     H      0.341880000000     0.215980000000     0.951220000000     0.0519526  
H321     H      0.268980000000     0.153020000000     0.937440000000     0.0526686  
H322     H      0.238060000000     0.251900000000     0.942480000000     0.052743   
H323     H      0.232760000000     0.215390000000     0.003910000000     0.0569754  
H324     H      0.396590000000     0.285970000000     0.931130000000     0.028392   
H325     H      0.703150000000     0.011860000000     0.966650000000     0.0329402  
H326     H      0.869490000000     0.968470000000     0.085640000000     0.0280548  
H327     H      0.753170000000     0.005160000000     0.092340000000     0.0539339  
H328     H      0.796310000000     0.965620000000     0.079390000000     0.0572719  
H329     H      0.780930000000     0.027100000000     0.982180000000     0.0530597  
H330     H      0.854300000000     0.083120000000     0.019680000000     0.0569004  
H331     H      0.675710000000     0.990750000000     0.076270000000     0.026105   
H332     H      0.292170000000     0.916280000000     0.887500000000     0.0282005  
H333     H      0.045730000000     0.848460000000     0.945610000000     0.0270838  
H334     H      0.193030000000     0.909750000000     0.976010000000     0.0501598  
H335     H      0.116910000000     0.846540000000     0.956650000000     0.0524689  
H336     H      0.212300000000     0.890790000000     0.871790000000     0.0519304  
H337     H      0.167770000000     0.927780000000     0.862940000000     0.0577656  
H338     H      0.273450000000     0.935820000000     0.990920000000     0.0362527  
H339     H      0.916370000000     0.608320000000     0.930340000000     0.030826   
H340     H      0.882050000000     0.767480000000     0.952620000000     0.0282602  
H341     H      0.920940000000     0.648090000000     0.049470000000     0.0510316  
H342     H      0.866940000000     0.697790000000     0.953620000000     0.0509013  
H343     H      0.905510000000     0.666120000000     0.935980000000     0.0535273  
H344     H      0.966210000000     0.718510000000     0.040280000000     0.0559147  
H345     H      0.934590000000     0.592140000000     0.042730000000     0.027558   
H346     H      0.041920000000     0.345140000000     0.901010000000     0.0390616  
H347     H      0.090360000000     0.168130000000     0.993580000000     0.0366789  
H348     H      0.065960000000     0.269750000000     0.008880000000     0.0569011  
H349     H      0.104320000000     0.237420000000     0.993070000000     0.0546631  
H350     H      0.053370000000     0.287870000000     0.895190000000     0.0554069  
H351     H      0.010080000000     0.218110000000     0.902940000000     0.0591817  
H352     H      0.058190000000     0.329470000000     0.013570000000     0.035062   
N1       N      0.502420000000     0.454770000000     0.825450000000    -0.19545    
N2       N      0.519610000000     0.479230000000     0.640840000000    -0.19296    
N3       N      0.404550000000     0.474950000000     0.823410000000    -0.105911   
N4       N      0.448580000000     0.485880000000     0.130560000000    -0.191917   
N5       N      0.466690000000     0.492850000000     0.315340000000    -0.192706   
N6       N      0.366850000000     0.373010000000     0.129140000000    -0.0904031  
N7       N      0.430160000000     0.796570000000     0.500820000000    -0.192131   
N8       N      0.428490000000     0.612450000000     0.489070000000    -0.191771   
N9       N      0.502820000000     0.821510000000     0.585470000000    -0.0984182  
N10      N      0.539570000000     0.164770000000     0.457840000000    -0.192885   
N11      N      0.544380000000     0.351820000000     0.468290000000    -0.193395   
N12      N      0.461610000000     0.136540000000     0.375950000000    -0.10014    
N13      N      0.551630000000     0.005530000000     0.637900000000    -0.189694   
N14      N      0.530130000000     0.988050000000     0.822440000000    -0.189784   
N15      N      0.564160000000     0.111130000000     0.616820000000    -0.0924642  
N16      N      0.455360000000     0.974850000000     0.135750000000    -0.189464   
N17      N      0.433750000000     0.959900000000     0.319690000000    -0.189355   
N18      N      0.580460000000     0.048640000000     0.144090000000    -0.0891009  
N19      N      0.533890000000     0.846530000000     0.932910000000    -0.190751   
N20      N      0.521030000000     0.653240000000     0.945910000000    -0.188706   
N21      N      0.657050000000     0.920350000000     0.948230000000    -0.09206    
N22      N      0.447950000000     0.102780000000     0.029410000000    -0.190709   
N23      N      0.457100000000     0.295470000000     0.013440000000    -0.187616   
N24      N      0.564230000000     0.138770000000     0.072210000000    -0.0995522  
N25      N      0.843700000000     0.316500000000     0.419380000000    -0.194884   
N26      N      0.682030000000     0.127300000000     0.497020000000    -0.193574   
N27      N      0.762870000000     0.355910000000     0.388250000000    -0.10764    
N28      N      0.131830000000     0.640150000000     0.528150000000    -0.194541   
N29      N      0.299330000000     0.832650000000     0.459930000000    -0.194727   
N30      N      0.208630000000     0.596470000000     0.559860000000    -0.106761   
N31      N      0.842050000000     0.522970000000     0.496720000000    -0.194835   
N32      N      0.644620000000     0.516140000000     0.411890000000    -0.197897   
N33      N      0.786400000000     0.424440000000     0.551980000000    -0.10474    
N34      N      0.134770000000     0.455190000000     0.452080000000    -0.198219   
N35      N      0.331840000000     0.464560000000     0.542800000000    -0.193381   
N36      N      0.194870000000     0.551800000000     0.394050000000    -0.101275   
N37      N      0.956250000000     0.477360000000     0.808540000000    -0.191077   
N38      N      0.955610000000     0.487260000000     0.622740000000    -0.192542   
N39      N      0.903330000000     0.542820000000     0.819180000000    -0.0958755  
N40      N      0.035370000000     0.473590000000     0.132110000000    -0.193248   
N41      N      0.018740000000     0.472460000000     0.314860000000    -0.193013   
N42      N      0.982390000000     0.359800000000     0.127300000000    -0.0975014  
N43      N      0.870000000000     0.298880000000     0.920950000000    -0.190619   
N44      N      0.665990000000     0.115490000000     0.915120000000    -0.189391   
N45      N      0.890620000000     0.346450000000     0.828730000000    -0.0969859  
N46      N      0.313240000000     0.833160000000     0.042860000000    -0.189715   
N47      N      0.117050000000     0.646700000000     0.021530000000    -0.190904   
N48      N      0.277410000000     0.909280000000     0.058870000000    -0.0992667  
N49      N      0.840730000000     0.451690000000     0.049910000000    -0.19267    
N50      N      0.640510000000     0.449350000000     0.970220000000    -0.195834   
N51      N      0.796860000000     0.339840000000     0.076710000000    -0.101992   
N52      N      0.140820000000     0.504530000000     0.892360000000    -0.196507   
N53      N      0.335080000000     0.510670000000     0.985000000000    -0.193026   
N54      N      0.098800000000     0.404390000000     0.854050000000    -0.0975172  
N55      N      0.620740000000     0.646830000000     0.549140000000    -0.19353    
N56      N      0.817930000000     0.837440000000     0.530210000000    -0.189558   
N57      N      0.531590000000     0.676230000000     0.518550000000    -0.0976249  
N58      N      0.180880000000     0.125050000000     0.428140000000    -0.189629   
N59      N      0.361060000000     0.324780000000     0.409560000000    -0.191883   
N60      N      0.166840000000     0.076740000000     0.344710000000    -0.0946876  
N61      N      0.577940000000     0.929030000000     0.397710000000    -0.197071   
N62      N      0.800640000000     0.958940000000     0.434540000000    -0.189516   
N63      N      0.602700000000     0.014420000000     0.327790000000    -0.0978208  
N64      N      0.193020000000     0.019390000000     0.511270000000    -0.188689   
N65      N      0.415220000000     0.052720000000     0.548250000000    -0.205391   
N66      N      0.204020000000     0.032400000000     0.412940000000    -0.0908214  
N67      N      0.016700000000     0.659530000000     0.437650000000    -0.186403   
N68      N      0.030200000000     0.856110000000     0.420840000000    -0.18963    
N69      N      0.008610000000     0.642340000000     0.341760000000    -0.0962453  
N70      N      0.948330000000     0.107960000000     0.523790000000    -0.190666   
N71      N      0.955210000000     0.300660000000     0.499450000000    -0.188003   
N72      N      0.056920000000     0.142150000000     0.577750000000    -0.102416   
N73      N      0.925310000000     0.939740000000     0.815580000000    -0.189598   
N74      N      0.951300000000     0.959290000000     0.631090000000    -0.189863   
N75      N      0.926720000000     0.839960000000     0.838620000000    -0.0958283  
N76      N      0.032460000000     0.992040000000     0.131350000000    -0.190854   
N77      N      0.031910000000     0.999320000000     0.315240000000    -0.189012   
N78      N      0.922470000000     0.893100000000     0.129420000000    -0.107045   
N79      N      0.793640000000     0.823110000000     0.957380000000    -0.192887   
N80      N      0.625630000000     0.636590000000     0.035420000000    -0.193042   
N81      N      0.750150000000     0.895380000000     0.967640000000    -0.0967784  
N82      N      0.179520000000     0.114640000000     0.989000000000    -0.192452   
N83      N      0.349550000000     0.308960000000     0.928610000000    -0.194265   
N84      N      0.139220000000     0.151640000000     0.056880000000    -0.0956393  
N85      N      0.903970000000     0.025960000000     0.054550000000    -0.195834   
N86      N      0.683380000000     0.999980000000     0.020230000000    -0.190165   
N87      N      0.973260000000     0.131370000000     0.010440000000    -0.0947256  
N88      N      0.067550000000     0.891490000000     0.900060000000    -0.194128   
N89      N      0.289150000000     0.928240000000     0.940470000000    -0.189459   
N90      N      0.087800000000     0.956040000000     0.815230000000    -0.0990395  
N91      N      0.933320000000     0.784130000000     0.995320000000    -0.192805   
N92      N      0.928370000000     0.597200000000     0.985970000000    -0.192852   
N93      N      0.020930000000     0.816410000000     0.071280000000    -0.100799   
N94      N      0.041560000000     0.152150000000     0.949230000000    -0.190133   
N95      N      0.048210000000     0.341120000000     0.957730000000    -0.190573   
N96      N      0.961070000000     0.122260000000     0.868750000000    -0.104551   
O1       O      0.129590000000     0.052310000000     0.969600000000    -0.383892   
O2       O      0.107230000000     0.077460000000     0.009370000000    -0.366103   
O3       O      0.944010000000     0.979210000000     0.862260000000    -0.380632   
O4       O      0.930950000000     0.913600000000     0.872910000000    -0.370062   
O5       O      0.007940000000     0.087910000000     0.928920000000    -0.365495   
O6       O      0.040640000000     0.097810000000     0.984350000000    -0.359861   
O7       O      0.059180000000     0.946820000000     0.902710000000    -0.380675   
O8       O      0.001420000000     0.885020000000     0.918230000000    -0.345991   
O9       O      0.126430000000     0.026200000000     0.906940000000    -0.326014   
O10      O      0.120290000000     0.961400000000     0.977030000000    -0.530543   
O11      O      0.015160000000     0.060670000000     0.866260000000    -0.518205   
O12      O      0.909650000000     0.027860000000     0.898900000000    -0.356038   
O13      O      0.042040000000     0.033560000000     0.951470000000    -0.494803   
O14      O      0.003950000000     0.971720000000     0.914080000000    -0.634332   
O15      O      0.966920000000     0.848390000000     0.015580000000    -0.373378   
O16      O      0.932140000000     0.837900000000     0.960900000000    -0.36653    
O17      O      0.932810000000     0.983210000000     0.050410000000    -0.350561   
O18      O      0.977580000000     0.048950000000     0.039190000000    -0.353981   
O19      O      0.843190000000     0.885990000000     0.974990000000    -0.377677   
O20      O      0.866420000000     0.858100000000     0.938140000000    -0.364005   
O21      O      0.011410000000     0.952780000000     0.084620000000    -0.356938   
O22      O      0.043610000000     0.022030000000     0.074350000000    -0.36283    
O23      O      0.966390000000     0.868390000000     0.079290000000    -0.514798   
O24      O      0.068730000000     0.917360000000     0.048150000000    -0.353218   
O25      O      0.841730000000     0.911540000000     0.036490000000    -0.337493   
O26      O      0.857300000000     0.982440000000     0.979090000000    -0.537621   
O27      O      0.930330000000     0.902270000000     0.995550000000    -0.629239   
O28      O      0.969430000000     0.964560000000     0.032490000000    -0.463214   
O29      O      0.015640000000     0.921170000000     0.972110000000    -0.493508   
O30      O      0.957730000000     0.015400000000     0.974570000000    -0.628109   
O31      O      0.056090000000     0.985360000000     0.010700000000    -0.631121   
O32      O      0.917320000000     0.950470000000     0.936710000000    -0.494511   
O33      O      0.985110000000     0.884130000000     0.426440000000    -0.368474   
O34      O      0.060490000000     0.924960000000     0.430520000000    -0.364735   
O35      O      0.870820000000     0.974670000000     0.418050000000    -0.370109   
O36      O      0.858300000000     0.968070000000     0.476260000000    -0.366166   
O37      O      0.988610000000     0.993660000000     0.359370000000    -0.383759   
O38      O      0.055770000000     0.994290000000     0.373750000000    -0.363384   
O39      O      0.884390000000     0.865970000000     0.503130000000    -0.381226   
O40      O      0.864710000000     0.908180000000     0.524760000000    -0.358262   
O41      O      0.897890000000     0.836170000000     0.448880000000    -0.333307   
O42      O      0.975850000000     0.854210000000     0.512570000000    -0.532739   
O43      O      0.895250000000     0.939840000000     0.368700000000    -0.51987    
O44      O      0.946380000000     0.045980000000     0.375960000000    -0.345983   
O45      O      0.983060000000     0.945820000000     0.423670000000    -0.486499   
O46      O      0.917620000000     0.938370000000     0.458960000000    -0.630892   
O47      O      0.997580000000     0.966870000000     0.588190000000    -0.379301   
O48      O      0.932960000000     0.970610000000     0.572510000000    -0.372205   
O49      O      0.113660000000     0.098780000000     0.453880000000    -0.372877   
O50      O      0.125310000000     0.057530000000     0.422670000000    -0.350502   
O51      O      0.998070000000     0.091710000000     0.505320000000    -0.375859   
O52      O      0.926850000000     0.040300000000     0.516390000000    -0.359133   
O53      O      0.121730000000     0.000630000000     0.528160000000    -0.363392   
O54      O      0.132280000000     0.001910000000     0.470440000000    -0.35665    
O55      O      0.090290000000     0.025580000000     0.581420000000    -0.522491   
O56      O      0.048650000000     0.922100000000     0.569550000000    -0.355773   
O57      O      0.089510000000     0.124340000000     0.507710000000    -0.324762   
O58      O      0.030660000000     0.115190000000     0.427300000000    -0.532407   
O59      O      0.006720000000     0.020860000000     0.523440000000    -0.627614   
O60      O      0.072090000000     0.026910000000     0.488030000000    -0.494594   
O61      O      0.964660000000     0.935350000000     0.523340000000    -0.496526   
O62      O      0.025690000000     0.031570000000     0.423430000000    -0.627069   
O63      O      0.032930000000     0.941760000000     0.489130000000    -0.626575   
O64      O      0.958500000000     0.025210000000     0.458610000000    -0.494035   
O65      O      0.042700000000     0.384720000000     0.991340000000    -0.363767   
O66      O      0.022570000000     0.384790000000     0.932650000000    -0.3646     
O67      O      0.880350000000     0.420930000000     0.037190000000    -0.381203   
O68      O      0.917730000000     0.488920000000     0.042880000000    -0.355935   
O69      O      0.890420000000     0.348010000000     0.958510000000    -0.374458   
O70      O      0.929850000000     0.364650000000     0.909440000000    -0.358586   
O71      O      0.034730000000     0.449420000000     0.079890000000    -0.37093    
O72      O      0.017130000000     0.500600000000     0.080370000000    -0.37917    
O73      O      0.012600000000     0.372220000000     0.056440000000    -0.317948   
O74      O      0.112660000000     0.459870000000     0.034970000000    -0.360323   
O75      O      0.867520000000     0.346600000000     0.023930000000    -0.51872    
O76      O      0.835670000000     0.399020000000     0.958700000000    -0.358849   
O77      O      0.971310000000     0.401560000000     0.978130000000    -0.499357   
O78      O      0.968910000000     0.441170000000     0.028570000000    -0.634541   
O79      O      0.099810000000     0.596260000000     0.986140000000    -0.387607   
O80      O      0.055210000000     0.581990000000     0.031580000000    -0.361381   
O81      O      0.952740000000     0.497090000000     0.862150000000    -0.372126   
O82      O      0.973610000000     0.448670000000     0.860360000000    -0.371204   
O83      O      0.937070000000     0.556060000000     0.951630000000    -0.373181   
O84      O      0.961080000000     0.558650000000     0.009620000000    -0.368437   
O85      O      0.086280000000     0.523250000000     0.895780000000    -0.361543   
O86      O      0.064530000000     0.458090000000     0.891220000000    -0.351877   
O87      O      0.128830000000     0.602070000000     0.924420000000    -0.5222     
O88      O      0.150030000000     0.538050000000     0.977560000000    -0.358695   
O89      O      0.977300000000     0.574430000000     0.886110000000    -0.330853   
O90      O      0.874360000000     0.485970000000     0.904630000000    -0.526102   
O91      O      0.015880000000     0.544380000000     0.962940000000    -0.631866   
O92      O      0.017450000000     0.504420000000     0.913350000000    -0.476887   
O93      O      0.057410000000     0.506910000000     0.012460000000    -0.498238   
O94      O      0.929140000000     0.438720000000     0.928710000000    -0.631402   
O95      O      0.057760000000     0.465990000000     0.961850000000    -0.624108   
O96      O      0.929680000000     0.479310000000     0.979840000000    -0.494361   
O97      O      0.960890000000     0.358920000000     0.518570000000    -0.368629   
O98      O      0.973550000000     0.358600000000     0.461540000000    -0.357992   
O99      O      0.862570000000     0.477370000000     0.485200000000    -0.378869   
O100     O      0.917140000000     0.539730000000     0.501480000000    -0.366003   
O101     O      0.864380000000     0.380510000000     0.432580000000    -0.378957   
O102     O      0.917390000000     0.367740000000     0.414710000000    -0.369237   
O103     O      0.961190000000     0.454950000000     0.578860000000    -0.38402    
O104     O      0.973380000000     0.520350000000     0.567120000000    -0.373832   
O105     O      0.905980000000     0.372930000000     0.560090000000    -0.333976   
O106     O      0.024170000000     0.419060000000     0.573580000000    -0.52706    
O107     O      0.817490000000     0.402950000000     0.466730000000    -0.512897   
O108     O      0.863590000000     0.468050000000     0.398560000000    -0.356303   
O109     O      0.932800000000     0.409990000000     0.473990000000    -0.499311   
O110     O      0.931960000000     0.463510000000     0.509550000000    -0.631188   
O111     O      0.111180000000     0.577190000000     0.511960000000    -0.383218   
O112     O      0.057050000000     0.590640000000     0.526390000000    -0.368769   
O113     O      0.011940000000     0.504950000000     0.358200000000    -0.378125   
O114     O      0.003920000000     0.440990000000     0.371040000000    -0.372501   
O115     O      0.010300000000     0.600650000000     0.418350000000    -0.360379   
O116     O      0.001490000000     0.602120000000     0.475890000000    -0.355497   
O117     O      0.096600000000     0.490610000000     0.434180000000    -0.34808    
O118     O      0.058800000000     0.423410000000     0.435170000000    -0.364325   
O119     O      0.160240000000     0.557430000000     0.477510000000    -0.520295   
O120     O      0.114180000000     0.483240000000     0.530110000000    -0.362876   
O121     O      0.069760000000     0.587610000000     0.378540000000    -0.329668   
O122     O      0.951630000000     0.542450000000     0.363130000000    -0.525131   
O123     O      0.042540000000     0.551320000000     0.463270000000    -0.63389    
O124     O      0.042660000000     0.497290000000     0.428120000000    -0.462386   
O125     O      0.025910000000     0.497620000000     0.526180000000    -0.493111   
O126     O      0.948940000000     0.462930000000     0.411090000000    -0.630181   
O127     O      0.027520000000     0.442060000000     0.490160000000    -0.628003   
O128     O      0.947600000000     0.518910000000     0.447830000000    -0.497342   
O129     O      0.359950000000     0.945840000000     0.924560000000    -0.374775   
O130     O      0.350710000000     0.954170000000     0.980350000000    -0.361234   
O131     O      0.489990000000     0.864920000000     0.958130000000    -0.379105   
O132     O      0.556960000000     0.915350000000     0.937580000000    -0.357132   
O133     O      0.381110000000     0.858660000000     0.017990000000    -0.383202   
O134     O      0.360810000000     0.903640000000     0.032870000000    -0.351771   
O135     O      0.483540000000     0.980260000000     0.864990000000    -0.37343    
O136     O      0.550310000000     0.980830000000     0.881380000000    -0.367949   
O137     O      0.392870000000     0.917470000000     0.874560000000    -0.33792    
O138     O      0.427120000000     0.020930000000     0.878870000000    -0.530315   
O139     O      0.396180000000     0.831120000000     0.959740000000    -0.519538   
O140     O      0.467660000000     0.848980000000     0.035830000000    -0.347299   
O141     O      0.412750000000     0.927500000000     0.968110000000    -0.497298   
O142     O      0.477360000000     0.931220000000     0.934380000000    -0.632255   
O143     O      0.597260000000     0.092270000000     0.937970000000    -0.375917   
O144     O      0.618510000000     0.046130000000     0.927070000000    -0.360545   
O145     O      0.501860000000     0.982300000000     0.093080000000    -0.36759    
O146     O      0.430050000000     0.970270000000     0.077150000000    -0.365857   
O147     O      0.614820000000     0.988870000000     0.036140000000    -0.371083   
O148     O      0.625550000000     0.989210000000     0.978440000000    -0.363502   
O149     O      0.493400000000     0.084700000000     0.005970000000    -0.366079   
O150     O      0.422640000000     0.034900000000     0.020220000000    -0.365346   
O151     O      0.584850000000     0.121890000000     0.994280000000    -0.517696   
O152     O      0.506700000000     0.099480000000     0.923320000000    -0.35638    
O153     O      0.596560000000     0.041850000000     0.072250000000    -0.334794   
O154     O      0.546240000000     0.933110000000     0.087720000000    -0.522846   
O155     O      0.567010000000     0.023370000000     0.989960000000    -0.633927   
O156     O      0.501360000000     0.019160000000     0.023400000000    -0.491693   
O157     O      0.517020000000     0.017080000000     0.925190000000    -0.497681   
O158     O      0.462770000000     0.933410000000     0.033140000000    -0.631872   
O159     O      0.449200000000     0.013370000000     0.958840000000    -0.627321   
O160     O      0.529680000000     0.937260000000     0.999660000000    -0.490577   
O161     O      0.507370000000     0.101290000000     0.436280000000    -0.376114   
O162     O      0.540180000000     0.110430000000     0.491580000000    -0.36798    
O163     O      0.346110000000     0.896370000000     0.476890000000    -0.396853   
O164     O      0.371560000000     0.870130000000     0.440250000000    -0.370058   
O165     O      0.449250000000     0.019680000000     0.529260000000    -0.438561   
O166     O      0.493060000000     0.077850000000     0.546390000000    -0.338199   
O167     O      0.455140000000     0.997170000000     0.367660000000    -0.368758   
O168     O      0.435290000000     0.929600000000     0.375970000000    -0.36756    
O169     O      0.413350000000     0.040070000000     0.403760000000    -0.347134   
O170     O      0.522500000000     0.078460000000     0.375020000000    -0.51769    
O171     O      0.346370000000     0.981340000000     0.484690000000    -0.538374   
O172     O      0.357140000000     0.924100000000     0.550050000000    -0.361034   
O173     O      0.459910000000     0.026840000000     0.480430000000    -0.46062    
O174     O      0.420630000000     0.964050000000     0.440030000000    -0.630498   
O175     O      0.547750000000     0.970310000000     0.402650000000    -0.345329   
O176     O      0.504220000000     0.904130000000     0.413060000000    -0.361269   
O177     O      0.529910000000     0.966580000000     0.590510000000    -0.381299   
O178     O      0.544930000000     0.032710000000     0.581240000000    -0.36917    
O179     O      0.464220000000     0.860300000000     0.522270000000    -0.362737   
O180     O      0.436480000000     0.852510000000     0.465410000000    -0.367741   
O181     O      0.633970000000     0.064110000000     0.479620000000    -0.38794    
O182     O      0.609740000000     0.090940000000     0.516660000000    -0.371908   
O183     O      0.618990000000     0.967590000000     0.476830000000    -0.537641   
O184     O      0.637630000000     0.038770000000     0.420240000000    -0.337166   
O185     O      0.560340000000     0.916180000000     0.554330000000    -0.350324   
O186     O      0.454900000000     0.887390000000     0.584390000000    -0.520392   
O187     O      0.518620000000     0.934440000000     0.477970000000    -0.627978   
O188     O      0.557650000000     0.998480000000     0.517750000000    -0.502538   
O189     O      0.509110000000     0.986540000000     0.420060000000    -0.465799   
O190     O      0.468600000000     0.976010000000     0.538870000000    -0.581173   
O191     O      0.546410000000     0.048080000000     0.459090000000    -0.628537   
O192     O      0.432720000000     0.914970000000     0.498330000000    -0.496625   
O193     O      0.461330000000     0.353440000000     0.032290000000    -0.362855   
O194     O      0.476890000000     0.353540000000     0.975950000000    -0.358346   
O195     O      0.361440000000     0.465400000000     0.995910000000    -0.388131   
O196     O      0.411400000000     0.532110000000     0.998720000000    -0.357211   
O197     O      0.368460000000     0.372740000000     0.941160000000    -0.385187   
O198     O      0.423650000000     0.360190000000     0.927660000000    -0.365158   
O199     O      0.455610000000     0.450310000000     0.089620000000    -0.363106   
O200     O      0.465770000000     0.514780000000     0.074020000000    -0.378264   
O201     O      0.398910000000     0.365290000000     0.065600000000    -0.3242     
O202     O      0.516080000000     0.412000000000     0.090000000000    -0.35954    
O203     O      0.315490000000     0.394520000000     0.966900000000    -0.516033   
O204     O      0.367460000000     0.462880000000     0.906270000000    -0.357218   
O205     O      0.434110000000     0.403580000000     0.984800000000    -0.495536   
O206     O      0.428800000000     0.456230000000     0.018680000000    -0.628798   
O207     O      0.607390000000     0.572120000000     0.025570000000    -0.384729   
O208     O      0.551220000000     0.586230000000     0.033350000000    -0.365417   
O209     O      0.503970000000     0.492010000000     0.867990000000    -0.374293   
O210     O      0.505880000000     0.432230000000     0.883680000000    -0.373512   
O211     O      0.514980000000     0.594680000000     0.926850000000    -0.366873   
O212     O      0.499270000000     0.594780000000     0.983090000000    -0.359695   
O213     O      0.604170000000     0.486540000000     0.952700000000    -0.357806   
O214     O      0.564340000000     0.419010000000     0.953320000000    -0.367728   
O215     O      0.659840000000     0.552930000000     0.995340000000    -0.519142   
O216     O      0.610250000000     0.478850000000     0.048080000000    -0.365046   
O217     O      0.578120000000     0.574030000000     0.891860000000    -0.339332   
O218     O      0.464790000000     0.545730000000     0.870780000000    -0.520666   
O219     O      0.541270000000     0.544360000000     0.974340000000    -0.636605   
O220     O      0.546540000000     0.491540000000     0.941220000000    -0.469139   
O221     O      0.521750000000     0.492060000000     0.037620000000    -0.493334   
O222     O      0.452080000000     0.455480000000     0.922040000000    -0.628669   
O223     O      0.527520000000     0.436660000000     0.004630000000    -0.630178   
O224     O      0.446990000000     0.510890000000     0.954720000000    -0.49234    
O225     O      0.533140000000     0.391950000000     0.501990000000    -0.375632   
O226     O      0.522970000000     0.398020000000     0.442300000000    -0.373041   
O227     O      0.375620000000     0.435370000000     0.538050000000    -0.386276   
O228     O      0.409750000000     0.502910000000     0.543470000000    -0.354707   
O229     O      0.375680000000     0.375270000000     0.443650000000    -0.388249   
O230     O      0.433330000000     0.380130000000     0.414770000000    -0.363292   
O231     O      0.523220000000     0.458020000000     0.588480000000    -0.3826     
O232     O      0.502840000000     0.507390000000     0.588620000000    -0.380853   
O233     O      0.485820000000     0.377230000000     0.565270000000    -0.335913   
O234     O      0.596660000000     0.456420000000     0.551030000000    -0.52897    
O235     O      0.359570000000     0.358920000000     0.515180000000    -0.522214   
O236     O      0.332810000000     0.426370000000     0.462740000000    -0.34941    
O237     O      0.463600000000     0.413120000000     0.483190000000    -0.501822   
O238     O      0.458840000000     0.452210000000     0.532590000000    -0.632363   
O239     O      0.607280000000     0.598130000000     0.513410000000    -0.383911   
O240     O      0.548950000000     0.591900000000     0.542540000000    -0.363474   
O241     O      0.465350000000     0.517060000000     0.367140000000    -0.376001   
O242     O      0.481240000000     0.464780000000     0.368210000000    -0.378934   
O243     O      0.444100000000     0.575330000000     0.455120000000    -0.369997   
O244     O      0.458200000000     0.572180000000     0.514590000000    -0.362461   
O245     O      0.590570000000     0.535840000000     0.411570000000    -0.355852   
O246     O      0.568800000000     0.471770000000     0.402930000000    -0.358968   
O247     O      0.637410000000     0.613820000000     0.446750000000    -0.526348   
O248     O      0.649600000000     0.540210000000     0.493600000000    -0.364802   
O249     O      0.507600000000     0.599440000000     0.396380000000    -0.344202   
O250     O      0.393750000000     0.521780000000     0.398940000000    -0.527319   
O251     O      0.522020000000     0.559960000000     0.473670000000    -0.631127   
O252     O      0.526840000000     0.520290000000     0.424590000000    -0.472761   
O253     O      0.549880000000     0.513690000000     0.525260000000    -0.499723   
O254     O      0.434830000000     0.459700000000     0.431200000000    -0.633362   
O255     O      0.555700000000     0.475000000000     0.475010000000    -0.627475   
O256     O      0.430330000000     0.497890000000     0.480850000000    -0.493715   
Zr1      Zr     0.070460000000     0.987400000000     0.950930000000     1.38803    
Zr2      Zr     0.974100000000     0.016370000000     0.915810000000     1.37764    
Zr3      Zr     0.998510000000     0.919270000000     0.030610000000     1.37695    
Zr4      Zr     0.902790000000     0.949230000000     0.996310000000     1.37925    
Zr5      Zr     0.026050000000     0.031150000000     0.011200000000     1.38118    
Zr6      Zr     0.947930000000     0.905160000000     0.936060000000     1.36971    
Zr7      Zr     0.955130000000     0.899080000000     0.474020000000     1.37355    
Zr8      Zr     0.947510000000     0.987160000000     0.410150000000     1.37785    
Zr9      Zr     0.042420000000     0.979610000000     0.537530000000     1.37958    
Zr10     Zr     0.036730000000     0.067590000000     0.473210000000     1.39054    
Zr11     Zr     0.061460000000     0.989820000000     0.438400000000     1.3673     
Zr12     Zr     0.928160000000     0.976430000000     0.508110000000     1.3576     
Zr13     Zr     0.033340000000     0.435380000000     0.018850000000     1.38109    
Zr14     Zr     0.907980000000     0.408790000000     0.986690000000     1.3882     
Zr15     Zr     0.079530000000     0.536860000000     0.954670000000     1.37049    
Zr16     Zr     0.953120000000     0.510200000000     0.922930000000     1.38896    
Zr17     Zr     0.994290000000     0.432780000000     0.920470000000     1.37316    
Zr18     Zr     0.992380000000     0.512980000000     0.020510000000     1.36569    
Zr19     Zr     0.971460000000     0.426470000000     0.529590000000     1.38263    
Zr20     Zr     0.895350000000     0.448050000000     0.452760000000     1.38951    
Zr21     Zr     0.080290000000     0.513190000000     0.484730000000     1.37079    
Zr22     Zr     0.003110000000     0.534160000000     0.407830000000     1.39321    
Zr23     Zr     0.988340000000     0.425580000000     0.433300000000     1.36531    
Zr24     Zr     0.986660000000     0.535020000000     0.504160000000     1.36336    
Zr25     Zr     0.439350000000     0.969540000000     0.915260000000     1.37994    
Zr26     Zr     0.451870000000     0.890870000000     0.988480000000     1.38771    
Zr27     Zr     0.527410000000     0.059800000000     0.969560000000     1.3825     
Zr28     Zr     0.540360000000     0.981810000000     0.042940000000     1.38764    
Zr29     Zr     0.423110000000     0.970750000000     0.012690000000     1.36187    
Zr30     Zr     0.555670000000     0.979020000000     0.945760000000     1.36772    
Zr31     Zr     0.479080000000     0.030960000000     0.422280000000     1.38114    
Zr32     Zr     0.402990000000     0.959960000000     0.499430000000     1.38699    
Zr33     Zr     0.574210000000     0.001240000000     0.458310000000     1.37078    
Zr34     Zr     0.499010000000     0.931750000000     0.536090000000     1.36882    
Zr35     Zr     0.528140000000     0.044720000000     0.518630000000     1.41552    
Zr36     Zr     0.452090000000     0.919340000000     0.439230000000     1.37189    
Zr37     Zr     0.468640000000     0.420530000000     0.041670000000     1.37522    
Zr38     Zr     0.395510000000     0.439840000000     0.960880000000     1.38556    
Zr39     Zr     0.579440000000     0.507840000000     0.999290000000     1.36821    
Zr40     Zr     0.506120000000     0.526930000000     0.917890000000     1.38798    
Zr41     Zr     0.492540000000     0.419830000000     0.946600000000     1.36989    
Zr42     Zr     0.482120000000     0.528070000000     0.012010000000     1.36673    
Zr43     Zr     0.521350000000     0.441620000000     0.528510000000     1.38512    
Zr44     Zr     0.402650000000     0.426290000000     0.485790000000     1.38526    
Zr45     Zr     0.583290000000     0.546900000000     0.471200000000     1.36766    
Zr46     Zr     0.465130000000     0.532110000000     0.427560000000     1.38289    
Zr47     Zr     0.497020000000     0.447450000000     0.428940000000     1.37852    
Zr48     Zr     0.486830000000     0.524750000000     0.527430000000     1.37677    


