data_structure

_audit_creation_method RASPA-1.0
_audit_creation_date 2023-5-19
_audit_author_name 'Poobodin Mano'

_cell_length_a    30.6711
_cell_length_b    49.8954
_cell_length_c    49.8787
_cell_angle_alpha 90
_cell_angle_beta  90
_cell_angle_gamma 90
_cell_volume      76331.7

_symmetry_cell_setting          triclinic
_symmetry_space_group_name_Hall 'P 1'
_symmetry_space_group_name_H-M  'P 1'
_symmetry_Int_Tables_number     1

_symmetry_equiv_pos_as_xyz 'x,y,z'

loop_
_atom_site_label
_atom_site_type_symbol
_atom_site_fract_x
_atom_site_fract_y
_atom_site_fract_z
_atom_site_charge
C1       C      0.620940000000     0.375760000000     0.995150000000     0.380759   
C2       C      0.265280000000     0.376970000000     0.355230000000     0.382457   
C3       C      0.263440000000     0.375920000000     0.995000000000     0.381077   
C4       C      0.618100000000     0.376930000000     0.355420000000     0.383252   
C5       C      0.618460000000     0.973540000000     0.355310000000     0.382202   
C6       C      0.262660000000     0.974750000000     0.995090000000     0.381178   
C7       C      0.264640000000     0.973700000000     0.355150000000     0.382203   
C8       C      0.621470000000     0.974720000000     0.995280000000     0.381064   
C9       C      0.513490000000     0.244850000000     0.126130000000     0.384576   
C10      C      0.368430000000     0.105210000000     0.126990000000     0.382962   
C11      C      0.370890000000     0.244930000000     0.125910000000     0.384994   
C12      C      0.515660000000     0.105150000000     0.127240000000     0.383158   
C13      C      0.514690000000     0.105060000000     0.223900000000     0.38222    
C14      C      0.370990000000     0.245020000000     0.224760000000     0.384076   
C15      C      0.368420000000     0.105120000000     0.223640000000     0.383049   
C16      C      0.512320000000     0.244980000000     0.225010000000     0.385138   
C17      C      0.317990000000     0.031000000000     0.027770000000    -0.0868722  
C18      C      0.308540000000     0.026250000000     0.054760000000     0.0337351  
C19      C      0.285760000000     0.002990000000     0.061680000000    -0.0846496  
C20      C      0.271260000000     0.985630000000     0.041520000000     0.0672565  
C21      C      0.303730000000     0.013080000000     0.008230000000     0.0699004  
C22      C      0.321150000000     0.046250000000     0.075220000000     0.0336404  
C23      C      0.345730000000     0.039040000000     0.097710000000    -0.0851701  
C24      C      0.360430000000     0.058920000000     0.115350000000     0.0678656  
C25      C      0.324480000000     0.092360000000     0.089800000000     0.0674864  
C26      C      0.309920000000     0.073130000000     0.071640000000    -0.0858823  
C27      C      0.286590000000     0.002420000000     0.288630000000    -0.0841162  
C28      C      0.310220000000     0.025360000000     0.295550000000     0.0331482  
C29      C      0.321060000000     0.029520000000     0.322440000000    -0.085123   
C30      C      0.307140000000     0.011410000000     0.341910000000     0.0673035  
C31      C      0.272450000000     0.984880000000     0.308730000000     0.0671854  
C32      C      0.322320000000     0.045630000000     0.275240000000     0.0338635  
C33      C      0.346120000000     0.038670000000     0.252370000000    -0.0851677  
C34      C      0.360410000000     0.058740000000     0.234830000000     0.0680292  
C35      C      0.325470000000     0.091940000000     0.261200000000     0.0676601  
C36      C      0.311390000000     0.072510000000     0.279300000000    -0.0858118  
C37      C      0.320840000000     0.320170000000     0.027130000000    -0.0877817  
C38      C      0.310820000000     0.324340000000     0.054130000000     0.0341235  
C39      C      0.287020000000     0.347140000000     0.061300000000    -0.0857557  
C40      C      0.272050000000     0.364590000000     0.041330000000     0.0678174  
C41      C      0.306030000000     0.338140000000     0.007810000000     0.0709554  
C42      C      0.323840000000     0.304140000000     0.074290000000     0.0334433  
C43      C      0.313850000000     0.277160000000     0.070050000000    -0.086785   
C44      C      0.328570000000     0.257810000000     0.088020000000     0.0678245  
C45      C      0.362440000000     0.291270000000     0.114600000000     0.0674682  
C46      C      0.347550000000     0.311260000000     0.097150000000    -0.0854612  
C47      C      0.566480000000     0.031060000000     0.028050000000    -0.0876391  
C48      C      0.575840000000     0.026230000000     0.055040000000     0.0341325  
C49      C      0.598510000000     0.002910000000     0.061920000000    -0.084706   
C50      C      0.612960000000     0.985560000000     0.041730000000     0.0674019  
C51      C      0.580670000000     0.013150000000     0.008480000000     0.0717408  
C52      C      0.563220000000     0.046190000000     0.075550000000     0.0334509  
C53      C      0.574690000000     0.073050000000     0.072100000000    -0.0856877  
C54      C      0.560050000000     0.092270000000     0.090250000000     0.0677502  
C55      C      0.523550000000     0.058860000000     0.115540000000     0.0675571  
C56      C      0.538330000000     0.038990000000     0.097910000000    -0.0850073  
C57      C      0.567290000000     0.277710000000     0.281390000000    -0.0868733  
C58      C      0.557990000000     0.304690000000     0.276540000000     0.0339791  
C59      C      0.535400000000     0.311580000000     0.253190000000    -0.085565   
C60      C      0.520950000000     0.291400000000     0.235830000000     0.0679697  
C61      C      0.553080000000     0.258150000000     0.263470000000     0.0687877  
C62      C      0.570610000000     0.325190000000     0.296490000000     0.0333699  
C63      C      0.559230000000     0.321720000000     0.323380000000    -0.0857744  
C64      C      0.573840000000     0.339880000000     0.342580000000     0.067653   
C65      C      0.610130000000     0.365230000000     0.309120000000     0.0675804  
C66      C      0.595380000000     0.347590000000     0.289260000000    -0.0851534  
C67      C      0.596130000000     0.002310000000     0.288860000000    -0.0841917  
C68      C      0.572460000000     0.025210000000     0.295860000000     0.0332048  
C69      C      0.561660000000     0.029300000000     0.322760000000    -0.0859236  
C70      C      0.575710000000     0.011180000000     0.342180000000     0.0669616  
C71      C      0.610390000000     0.984750000000     0.308920000000     0.0669759  
C72      C      0.560350000000     0.045520000000     0.275590000000     0.0335985  
C73      C      0.571110000000     0.072410000000     0.279760000000    -0.0860399  
C74      C      0.557160000000     0.091860000000     0.261640000000     0.0667999  
C75      C      0.522610000000     0.058670000000     0.235070000000     0.0677464  
C76      C      0.536780000000     0.038580000000     0.252620000000    -0.0851432  
C77      C      0.347950000000     0.311620000000     0.252970000000    -0.085232   
C78      C      0.325050000000     0.304740000000     0.276200000000     0.0333686  
C79      C      0.315490000000     0.277770000000     0.280940000000    -0.0857393  
C80      C      0.329770000000     0.258220000000     0.263030000000     0.0668049  
C81      C      0.362470000000     0.291450000000     0.235620000000     0.0674987  
C82      C      0.312460000000     0.325210000000     0.296200000000     0.0335705  
C83      C      0.323770000000     0.321660000000     0.323090000000    -0.086009   
C84      C      0.309250000000     0.339810000000     0.342320000000     0.0672796  
C85      C      0.273120000000     0.365300000000     0.308910000000     0.0676464  
C86      C      0.287800000000     0.347670000000     0.289010000000    -0.0852639  
C87      C      0.537060000000     0.311150000000     0.097370000000    -0.0852772  
C88      C      0.560970000000     0.304000000000     0.074600000000     0.0333553  
C89      C      0.571070000000     0.277020000000     0.070450000000    -0.0858821  
C90      C      0.556220000000     0.257700000000     0.088400000000     0.0670601  
C91      C      0.522050000000     0.291180000000     0.114810000000     0.0675038  
C92      C      0.573980000000     0.324160000000     0.054400000000     0.0339679  
C93      C      0.563970000000     0.319920000000     0.027410000000    -0.0868275  
C94      C      0.578660000000     0.337880000000     0.008050000000     0.0699419  
C95      C      0.612570000000     0.364450000000     0.041510000000     0.0676622  
C96      C      0.597700000000     0.347010000000     0.061510000000    -0.0855814  
C97      C      0.620940000000     0.375760000000     0.495150000000     0.384567   
C98      C      0.265280000000     0.376970000000     0.855230000000     0.382448   
C99      C      0.263440000000     0.375920000000     0.495000000000     0.384982   
C100     C      0.618100000000     0.376930000000     0.855410000000     0.383395   
C101     C      0.618460000000     0.973540000000     0.855310000000     0.38242    
C102     C      0.262660000000     0.974750000000     0.495090000000     0.385089   
C103     C      0.264640000000     0.973700000000     0.855150000000     0.382005   
C104     C      0.621470000000     0.974720000000     0.495280000000     0.384978   
C105     C      0.513490000000     0.244850000000     0.626120000000     0.384522   
C106     C      0.368430000000     0.105210000000     0.626990000000     0.382938   
C107     C      0.370890000000     0.244930000000     0.625910000000     0.384966   
C108     C      0.515660000000     0.105150000000     0.627240000000     0.383227   
C109     C      0.514690000000     0.105060000000     0.723900000000     0.382315   
C110     C      0.370990000000     0.245020000000     0.724760000000     0.384077   
C111     C      0.368420000000     0.105120000000     0.723640000000     0.383055   
C112     C      0.512320000000     0.244980000000     0.725010000000     0.38524    
C113     C      0.317990000000     0.031000000000     0.527770000000    -0.0859764  
C114     C      0.308540000000     0.026250000000     0.554760000000     0.0332555  
C115     C      0.285760000000     0.002990000000     0.561680000000    -0.0844956  
C116     C      0.271260000000     0.985630000000     0.541520000000     0.0671371  
C117     C      0.303730000000     0.013080000000     0.508230000000     0.0671062  
C118     C      0.321150000000     0.046250000000     0.575220000000     0.0337454  
C119     C      0.345730000000     0.039040000000     0.597710000000    -0.0852488  
C120     C      0.360430000000     0.058920000000     0.615350000000     0.0678698  
C121     C      0.324480000000     0.092360000000     0.589800000000     0.0674589  
C122     C      0.309920000000     0.073130000000     0.571640000000    -0.085977   
C123     C      0.286590000000     0.002420000000     0.788620000000    -0.0841376  
C124     C      0.310220000000     0.025360000000     0.795560000000     0.0331866  
C125     C      0.321060000000     0.029520000000     0.822440000000    -0.085145   
C126     C      0.307140000000     0.011410000000     0.841910000000     0.0672409  
C127     C      0.272450000000     0.984880000000     0.808730000000     0.0672585  
C128     C      0.322320000000     0.045630000000     0.775240000000     0.0338591  
C129     C      0.346120000000     0.038670000000     0.752370000000    -0.085157   
C130     C      0.360410000000     0.058740000000     0.734830000000     0.0680362  
C131     C      0.325470000000     0.091940000000     0.761200000000     0.0676574  
C132     C      0.311390000000     0.072510000000     0.779300000000    -0.0858105  
C133     C      0.320840000000     0.320170000000     0.527130000000    -0.0868705  
C134     C      0.310820000000     0.324340000000     0.554130000000     0.0336339  
C135     C      0.287020000000     0.347140000000     0.561300000000    -0.0855826  
C136     C      0.272050000000     0.364590000000     0.541340000000     0.0676229  
C137     C      0.306030000000     0.338140000000     0.507810000000     0.0681403  
C138     C      0.323840000000     0.304140000000     0.574290000000     0.0335509  
C139     C      0.313850000000     0.277160000000     0.570050000000    -0.0868821  
C140     C      0.328570000000     0.257810000000     0.588020000000     0.0677946  
C141     C      0.362440000000     0.291270000000     0.614600000000     0.0674723  
C142     C      0.347550000000     0.311260000000     0.597150000000    -0.0855408  
C143     C      0.566480000000     0.031060000000     0.528050000000    -0.0867426  
C144     C      0.575840000000     0.026230000000     0.555040000000     0.0336549  
C145     C      0.598510000000     0.002910000000     0.561920000000    -0.0845522  
C146     C      0.612960000000     0.985560000000     0.541730000000     0.0672828  
C147     C      0.580670000000     0.013150000000     0.508480000000     0.0689457  
C148     C      0.563220000000     0.046190000000     0.575550000000     0.033551   
C149     C      0.574690000000     0.073050000000     0.572100000000    -0.0857574  
C150     C      0.560050000000     0.092270000000     0.590250000000     0.0676589  
C151     C      0.523550000000     0.058860000000     0.615540000000     0.0675993  
C152     C      0.538330000000     0.038990000000     0.597910000000    -0.0851012  
C153     C      0.567290000000     0.277710000000     0.781390000000    -0.086875   
C154     C      0.557990000000     0.304690000000     0.776540000000     0.0339776  
C155     C      0.535400000000     0.311580000000     0.753190000000    -0.0855585  
C156     C      0.520950000000     0.291400000000     0.735830000000     0.0679827  
C157     C      0.553080000000     0.258150000000     0.763470000000     0.0687864  
C158     C      0.570610000000     0.325190000000     0.796490000000     0.0333808  
C159     C      0.559230000000     0.321720000000     0.823380000000    -0.0858031  
C160     C      0.573840000000     0.339880000000     0.842580000000     0.0676815  
C161     C      0.610130000000     0.365230000000     0.809120000000     0.0675961  
C162     C      0.595380000000     0.347590000000     0.789260000000    -0.085153   
C163     C      0.596130000000     0.002310000000     0.788870000000    -0.0841282  
C164     C      0.572460000000     0.025210000000     0.795860000000     0.0331936  
C165     C      0.561660000000     0.029300000000     0.822760000000    -0.0859326  
C166     C      0.575710000000     0.011180000000     0.842180000000     0.066966   
C167     C      0.610390000000     0.984750000000     0.808920000000     0.0669867  
C168     C      0.560350000000     0.045520000000     0.775590000000     0.0335924  
C169     C      0.571110000000     0.072410000000     0.779760000000    -0.0859992  
C170     C      0.557160000000     0.091860000000     0.761650000000     0.0666709  
C171     C      0.522610000000     0.058670000000     0.735070000000     0.0677896  
C172     C      0.536780000000     0.038580000000     0.752620000000    -0.0851467  
C173     C      0.347950000000     0.311620000000     0.752970000000    -0.0852249  
C174     C      0.325050000000     0.304740000000     0.776200000000     0.0333712  
C175     C      0.315490000000     0.277770000000     0.780940000000    -0.0857347  
C176     C      0.329770000000     0.258220000000     0.763030000000     0.0667905  
C177     C      0.362470000000     0.291450000000     0.735620000000     0.0675065  
C178     C      0.312460000000     0.325210000000     0.796200000000     0.0335649  
C179     C      0.323770000000     0.321660000000     0.823080000000    -0.0859085  
C180     C      0.309250000000     0.339810000000     0.842330000000     0.0671433  
C181     C      0.273120000000     0.365300000000     0.808910000000     0.0676471  
C182     C      0.287800000000     0.347670000000     0.789010000000    -0.0852473  
C183     C      0.537060000000     0.311150000000     0.597370000000    -0.0853649  
C184     C      0.560970000000     0.304000000000     0.574600000000     0.033467   
C185     C      0.571070000000     0.277020000000     0.570450000000    -0.0859822  
C186     C      0.556220000000     0.257700000000     0.588400000000     0.0670351  
C187     C      0.522050000000     0.291180000000     0.614810000000     0.0675278  
C188     C      0.573980000000     0.324160000000     0.554400000000     0.0334793  
C189     C      0.563970000000     0.319920000000     0.527410000000    -0.0859185  
C190     C      0.578660000000     0.337880000000     0.508050000000     0.0671284  
C191     C      0.612570000000     0.364450000000     0.541510000000     0.0675276  
C192     C      0.597700000000     0.347010000000     0.561510000000    -0.0854195  
C193     C      0.620940000000     0.875760000000     0.995150000000     0.380757   
C194     C      0.265280000000     0.876970000000     0.355230000000     0.382455   
C195     C      0.263440000000     0.875920000000     0.995000000000     0.381075   
C196     C      0.618100000000     0.876930000000     0.355420000000     0.38325    
C197     C      0.618460000000     0.473540000000     0.355310000000     0.382239   
C198     C      0.262660000000     0.474750000000     0.995090000000     0.381217   
C199     C      0.264640000000     0.473700000000     0.355150000000     0.382239   
C200     C      0.621470000000     0.474720000000     0.995280000000     0.381102   
C201     C      0.513490000000     0.744850000000     0.126130000000     0.384577   
C202     C      0.368430000000     0.605210000000     0.126990000000     0.382957   
C203     C      0.370890000000     0.744930000000     0.125910000000     0.384996   
C204     C      0.515660000000     0.605150000000     0.127240000000     0.383153   
C205     C      0.514690000000     0.605060000000     0.223900000000     0.382211   
C206     C      0.370990000000     0.745020000000     0.224760000000     0.384077   
C207     C      0.368420000000     0.605120000000     0.223640000000     0.383044   
C208     C      0.512320000000     0.744980000000     0.225010000000     0.38514    
C209     C      0.317990000000     0.531000000000     0.027770000000    -0.0869773  
C210     C      0.308540000000     0.526250000000     0.054760000000     0.0340193  
C211     C      0.285760000000     0.502990000000     0.061680000000    -0.0855932  
C212     C      0.271260000000     0.485630000000     0.041520000000     0.0678915  
C213     C      0.303730000000     0.513080000000     0.008230000000     0.0696717  
C214     C      0.321150000000     0.546250000000     0.075220000000     0.0334743  
C215     C      0.345730000000     0.539040000000     0.097710000000    -0.0851272  
C216     C      0.360430000000     0.558920000000     0.115350000000     0.0678256  
C217     C      0.324480000000     0.592360000000     0.089800000000     0.0674515  
C218     C      0.309920000000     0.573130000000     0.071640000000    -0.085823   
C219     C      0.286590000000     0.502420000000     0.288630000000    -0.085062   
C220     C      0.310220000000     0.525360000000     0.295550000000     0.0334318  
C221     C      0.321060000000     0.529520000000     0.322440000000    -0.085226   
C222     C      0.307140000000     0.511410000000     0.341910000000     0.0670668  
C223     C      0.272450000000     0.484880000000     0.308730000000     0.0678217  
C224     C      0.322320000000     0.545630000000     0.275240000000     0.0336974  
C225     C      0.346120000000     0.538670000000     0.252370000000    -0.0851246  
C226     C      0.360410000000     0.558740000000     0.234830000000     0.0679896  
C227     C      0.325470000000     0.591940000000     0.261200000000     0.0676253  
C228     C      0.311390000000     0.572510000000     0.279300000000    -0.0857527  
C229     C      0.320840000000     0.820170000000     0.027130000000    -0.0877821  
C230     C      0.310820000000     0.824340000000     0.054130000000     0.0341226  
C231     C      0.287020000000     0.847140000000     0.061300000000    -0.0857595  
C232     C      0.272050000000     0.864590000000     0.041330000000     0.0678129  
C233     C      0.306030000000     0.838140000000     0.007810000000     0.070955   
C234     C      0.323840000000     0.804140000000     0.074290000000     0.0334423  
C235     C      0.313850000000     0.777160000000     0.070050000000    -0.0867834  
C236     C      0.328570000000     0.757810000000     0.088020000000     0.0678257  
C237     C      0.362440000000     0.791270000000     0.114600000000     0.0674671  
C238     C      0.347550000000     0.811260000000     0.097150000000    -0.0854615  
C239     C      0.566480000000     0.531060000000     0.028050000000    -0.0877431  
C240     C      0.575840000000     0.526230000000     0.055040000000     0.0344156  
C241     C      0.598510000000     0.502910000000     0.061920000000    -0.0856482  
C242     C      0.612960000000     0.485560000000     0.041730000000     0.068036   
C243     C      0.580670000000     0.513150000000     0.008480000000     0.0715115  
C244     C      0.563220000000     0.546190000000     0.075550000000     0.0332852  
C245     C      0.574690000000     0.573050000000     0.072100000000    -0.0856288  
C246     C      0.560050000000     0.592270000000     0.090250000000     0.0677154  
C247     C      0.523550000000     0.558860000000     0.115540000000     0.0675172  
C248     C      0.538330000000     0.538990000000     0.097910000000    -0.0849645  
C249     C      0.567290000000     0.777710000000     0.281390000000    -0.0868715  
C250     C      0.557990000000     0.804690000000     0.276540000000     0.0339775  
C251     C      0.535400000000     0.811580000000     0.253190000000    -0.0855651  
C252     C      0.520950000000     0.791400000000     0.235830000000     0.0679684  
C253     C      0.553080000000     0.758150000000     0.263470000000     0.0687887  
C254     C      0.570610000000     0.825190000000     0.296490000000     0.0333697  
C255     C      0.559230000000     0.821720000000     0.323380000000    -0.0857754  
C256     C      0.573840000000     0.839880000000     0.342580000000     0.0676514  
C257     C      0.610130000000     0.865230000000     0.309120000000     0.0675811  
C258     C      0.595380000000     0.847590000000     0.289260000000    -0.0851607  
C259     C      0.596130000000     0.502310000000     0.288860000000    -0.0851385  
C260     C      0.572460000000     0.525210000000     0.295860000000     0.0334918  
C261     C      0.561660000000     0.529300000000     0.322760000000    -0.0860278  
C262     C      0.575710000000     0.511180000000     0.342180000000     0.0667252  
C263     C      0.610390000000     0.484750000000     0.308920000000     0.0676123  
C264     C      0.560350000000     0.545520000000     0.275590000000     0.0334241  
C265     C      0.571110000000     0.572410000000     0.279760000000    -0.085971   
C266     C      0.557160000000     0.591860000000     0.261640000000     0.0667568  
C267     C      0.522610000000     0.558660000000     0.235070000000     0.0676301  
C268     C      0.536780000000     0.538580000000     0.252620000000    -0.085077   
C269     C      0.347950000000     0.811620000000     0.252970000000    -0.0852324  
C270     C      0.325050000000     0.804740000000     0.276200000000     0.0333675  
C271     C      0.315490000000     0.777770000000     0.280940000000    -0.0857377  
C272     C      0.329770000000     0.758220000000     0.263030000000     0.066806   
C273     C      0.362470000000     0.791450000000     0.235620000000     0.0674975  
C274     C      0.312460000000     0.825210000000     0.296200000000     0.033569   
C275     C      0.323770000000     0.821660000000     0.323090000000    -0.0860093  
C276     C      0.309250000000     0.839810000000     0.342320000000     0.0672775  
C277     C      0.273120000000     0.865300000000     0.308910000000     0.0676412  
C278     C      0.287800000000     0.847670000000     0.289010000000    -0.0852679  
C279     C      0.537060000000     0.811150000000     0.097370000000    -0.0852775  
C280     C      0.560970000000     0.804000000000     0.074600000000     0.0333543  
C281     C      0.571070000000     0.777020000000     0.070450000000    -0.0858805  
C282     C      0.556220000000     0.757700000000     0.088400000000     0.0670613  
C283     C      0.522050000000     0.791180000000     0.114810000000     0.0675027  
C284     C      0.573980000000     0.824160000000     0.054400000000     0.033967   
C285     C      0.563970000000     0.819920000000     0.027410000000    -0.0868277  
C286     C      0.578660000000     0.837880000000     0.008050000000     0.069942   
C287     C      0.612570000000     0.864450000000     0.041510000000     0.067658   
C288     C      0.597700000000     0.847010000000     0.061510000000    -0.0855852  
C289     C      0.620940000000     0.875760000000     0.495150000000     0.384566   
C290     C      0.265280000000     0.876970000000     0.855230000000     0.382445   
C291     C      0.263440000000     0.875920000000     0.495000000000     0.384981   
C292     C      0.618100000000     0.876930000000     0.855410000000     0.383393   
C293     C      0.618460000000     0.473540000000     0.855310000000     0.382457   
C294     C      0.262660000000     0.474750000000     0.495090000000     0.385128   
C295     C      0.264640000000     0.473700000000     0.855150000000     0.382042   
C296     C      0.621470000000     0.474720000000     0.495280000000     0.385016   
C297     C      0.513490000000     0.744850000000     0.626120000000     0.384523   
C298     C      0.368430000000     0.605210000000     0.626990000000     0.382933   
C299     C      0.370890000000     0.744930000000     0.625910000000     0.384967   
C300     C      0.515660000000     0.605150000000     0.627240000000     0.383222   
C301     C      0.514690000000     0.605060000000     0.723900000000     0.382306   
C302     C      0.370990000000     0.745020000000     0.724760000000     0.384078   
C303     C      0.368420000000     0.605120000000     0.723640000000     0.38305    
C304     C      0.512320000000     0.744980000000     0.725010000000     0.385241   
C305     C      0.317990000000     0.531000000000     0.527770000000    -0.0860798  
C306     C      0.308540000000     0.526250000000     0.554760000000     0.0335403  
C307     C      0.285760000000     0.502990000000     0.561680000000    -0.0854446  
C308     C      0.271260000000     0.485630000000     0.541520000000     0.0677755  
C309     C      0.303730000000     0.513080000000     0.508230000000     0.0668696  
C310     C      0.321150000000     0.546250000000     0.575220000000     0.0335785  
C311     C      0.345730000000     0.539040000000     0.597710000000    -0.0852058  
C312     C      0.360430000000     0.558920000000     0.615350000000     0.0678295  
C313     C      0.324480000000     0.592360000000     0.589800000000     0.0674238  
C314     C      0.309920000000     0.573130000000     0.571640000000    -0.0859176  
C315     C      0.286590000000     0.502420000000     0.788620000000    -0.0850865  
C316     C      0.310220000000     0.525360000000     0.795560000000     0.0334708  
C317     C      0.321060000000     0.529520000000     0.822440000000    -0.0852484  
C318     C      0.307140000000     0.511410000000     0.841910000000     0.0670031  
C319     C      0.272450000000     0.484880000000     0.808730000000     0.0678965  
C320     C      0.322320000000     0.545630000000     0.775240000000     0.0336927  
C321     C      0.346120000000     0.538670000000     0.752370000000    -0.0851138  
C322     C      0.360410000000     0.558740000000     0.734830000000     0.0679965  
C323     C      0.325470000000     0.591940000000     0.761200000000     0.0676224  
C324     C      0.311390000000     0.572510000000     0.779300000000    -0.0857514  
C325     C      0.320840000000     0.820170000000     0.527130000000    -0.0868706  
C326     C      0.310820000000     0.824340000000     0.554130000000     0.0336327  
C327     C      0.287020000000     0.847140000000     0.561300000000    -0.0855863  
C328     C      0.272050000000     0.864590000000     0.541340000000     0.0676183  
C329     C      0.306030000000     0.838140000000     0.507810000000     0.0681388  
C330     C      0.323840000000     0.804140000000     0.574290000000     0.0335499  
C331     C      0.313850000000     0.777160000000     0.570050000000    -0.0868805  
C332     C      0.328570000000     0.757810000000     0.588020000000     0.0677958  
C333     C      0.362440000000     0.791270000000     0.614600000000     0.0674711  
C334     C      0.347550000000     0.811260000000     0.597150000000    -0.0855411  
C335     C      0.566480000000     0.531060000000     0.528050000000    -0.0868448  
C336     C      0.575840000000     0.526230000000     0.555040000000     0.0339386  
C337     C      0.598510000000     0.502910000000     0.561920000000    -0.0854997  
C338     C      0.612960000000     0.485560000000     0.541730000000     0.0679203  
C339     C      0.580670000000     0.513150000000     0.508480000000     0.0687085  
C340     C      0.563220000000     0.546190000000     0.575550000000     0.0333847  
C341     C      0.574690000000     0.573050000000     0.572100000000    -0.0856982  
C342     C      0.560050000000     0.592270000000     0.590250000000     0.0676239  
C343     C      0.523550000000     0.558860000000     0.615540000000     0.0675592  
C344     C      0.538330000000     0.538990000000     0.597910000000    -0.0850584  
C345     C      0.567290000000     0.777710000000     0.781390000000    -0.0868732  
C346     C      0.557990000000     0.804690000000     0.776540000000     0.0339759  
C347     C      0.535400000000     0.811580000000     0.753190000000    -0.0855587  
C348     C      0.520950000000     0.791400000000     0.735830000000     0.0679814  
C349     C      0.553080000000     0.758150000000     0.763470000000     0.0687875  
C350     C      0.570610000000     0.825190000000     0.796490000000     0.0333806  
C351     C      0.559230000000     0.821720000000     0.823380000000    -0.0858042  
C352     C      0.573840000000     0.839880000000     0.842580000000     0.0676798  
C353     C      0.610130000000     0.865230000000     0.809120000000     0.0675967  
C354     C      0.595380000000     0.847590000000     0.789260000000    -0.0851603  
C355     C      0.596130000000     0.502310000000     0.788870000000    -0.0850785  
C356     C      0.572460000000     0.525210000000     0.795860000000     0.0334817  
C357     C      0.561660000000     0.529300000000     0.822760000000    -0.0860372  
C358     C      0.575710000000     0.511180000000     0.842180000000     0.0667284  
C359     C      0.610390000000     0.484750000000     0.808920000000     0.0676257  
C360     C      0.560350000000     0.545520000000     0.775590000000     0.0334173  
C361     C      0.571110000000     0.572410000000     0.779760000000    -0.08593    
C362     C      0.557160000000     0.591860000000     0.761650000000     0.0666277  
C363     C      0.522610000000     0.558660000000     0.735070000000     0.0676731  
C364     C      0.536780000000     0.538580000000     0.752620000000    -0.0850803  
C365     C      0.347950000000     0.811620000000     0.752970000000    -0.0852253  
C366     C      0.325050000000     0.804740000000     0.776200000000     0.0333701  
C367     C      0.315490000000     0.777770000000     0.780940000000    -0.0857331  
C368     C      0.329770000000     0.758220000000     0.763030000000     0.0667917  
C369     C      0.362470000000     0.791450000000     0.735620000000     0.0675053  
C370     C      0.312460000000     0.825210000000     0.796200000000     0.0335635  
C371     C      0.323770000000     0.821660000000     0.823080000000    -0.0859088  
C372     C      0.309250000000     0.839810000000     0.842330000000     0.0671412  
C373     C      0.273120000000     0.865300000000     0.808910000000     0.0676419  
C374     C      0.287800000000     0.847670000000     0.789010000000    -0.0852513  
C375     C      0.537060000000     0.811150000000     0.597370000000    -0.0853652  
C376     C      0.560970000000     0.804000000000     0.574600000000     0.033466   
C377     C      0.571070000000     0.777020000000     0.570450000000    -0.0859807  
C378     C      0.556220000000     0.757700000000     0.588400000000     0.0670363  
C379     C      0.522050000000     0.791180000000     0.614810000000     0.0675267  
C380     C      0.573980000000     0.824160000000     0.554400000000     0.0334782  
C381     C      0.563970000000     0.819920000000     0.527410000000    -0.0859185  
C382     C      0.578660000000     0.837880000000     0.508050000000     0.0671276  
C383     C      0.612570000000     0.864450000000     0.541510000000     0.0675233  
C384     C      0.597700000000     0.847010000000     0.561510000000    -0.0854233  
C385     C      0.120940000000     0.375760000000     0.995150000000     0.380852   
C386     C      0.765280000000     0.376970000000     0.355230000000     0.382429   
C387     C      0.763440000000     0.375920000000     0.995000000000     0.381167   
C388     C      0.118100000000     0.376930000000     0.355420000000     0.383255   
C389     C      0.118460000000     0.973540000000     0.355310000000     0.382207   
C390     C      0.762660000000     0.974750000000     0.995090000000     0.381175   
C391     C      0.764640000000     0.973700000000     0.355150000000     0.382169   
C392     C      0.121470000000     0.974720000000     0.995280000000     0.381071   
C393     C      0.013490000000     0.244850000000     0.126130000000     0.384519   
C394     C      0.868420000000     0.105210000000     0.126990000000     0.38294    
C395     C      0.870890000000     0.244930000000     0.125910000000     0.385063   
C396     C      0.015660000000     0.105150000000     0.127240000000     0.383102   
C397     C      0.014690000000     0.105060000000     0.223900000000     0.382165   
C398     C      0.870990000000     0.245020000000     0.224760000000     0.384039   
C399     C      0.868420000000     0.105120000000     0.223640000000     0.38305    
C400     C      0.012320000000     0.244980000000     0.225010000000     0.385081   
C401     C      0.817990000000     0.031000000000     0.027770000000    -0.0868705  
C402     C      0.808540000000     0.026250000000     0.054760000000     0.0337372  
C403     C      0.785760000000     0.002990000000     0.061680000000    -0.0846494  
C404     C      0.771260000000     0.985630000000     0.041520000000     0.0672577  
C405     C      0.803730000000     0.013080000000     0.008230000000     0.0699024  
C406     C      0.821150000000     0.046250000000     0.075220000000     0.0336391  
C407     C      0.845730000000     0.039040000000     0.097710000000    -0.0851686  
C408     C      0.860430000000     0.058920000000     0.115350000000     0.0678757  
C409     C      0.824480000000     0.092360000000     0.089800000000     0.0674862  
C410     C      0.809930000000     0.073130000000     0.071640000000    -0.0858617  
C411     C      0.786590000000     0.002420000000     0.288630000000    -0.084086   
C412     C      0.810220000000     0.025360000000     0.295550000000     0.0331508  
C413     C      0.821060000000     0.029520000000     0.322440000000    -0.0851307  
C414     C      0.807140000000     0.011410000000     0.341910000000     0.0673344  
C415     C      0.772440000000     0.984880000000     0.308730000000     0.0671347  
C416     C      0.822320000000     0.045630000000     0.275240000000     0.0338442  
C417     C      0.846130000000     0.038670000000     0.252370000000    -0.0851717  
C418     C      0.860410000000     0.058740000000     0.234830000000     0.0680397  
C419     C      0.825470000000     0.091940000000     0.261200000000     0.0676473  
C420     C      0.811400000000     0.072510000000     0.279300000000    -0.0857593  
C421     C      0.820840000000     0.320170000000     0.027130000000    -0.0877787  
C422     C      0.810820000000     0.324340000000     0.054130000000     0.0341188  
C423     C      0.787010000000     0.347140000000     0.061300000000    -0.0857693  
C424     C      0.772050000000     0.364590000000     0.041330000000     0.0678372  
C425     C      0.806030000000     0.338140000000     0.007810000000     0.0709598  
C426     C      0.823840000000     0.304140000000     0.074290000000     0.0334521  
C427     C      0.813850000000     0.277160000000     0.070050000000    -0.0868026  
C428     C      0.828570000000     0.257810000000     0.088020000000     0.0678667  
C429     C      0.862440000000     0.291270000000     0.114600000000     0.067458   
C430     C      0.847550000000     0.311260000000     0.097150000000    -0.0854557  
C431     C      0.066480000000     0.031060000000     0.028050000000    -0.0876415  
C432     C      0.075840000000     0.026230000000     0.055040000000     0.0341312  
C433     C      0.098510000000     0.002910000000     0.061920000000    -0.0847072  
C434     C      0.112960000000     0.985560000000     0.041730000000     0.0674009  
C435     C      0.080670000000     0.013150000000     0.008480000000     0.0717389  
C436     C      0.063220000000     0.046190000000     0.075550000000     0.0334475  
C437     C      0.074690000000     0.073050000000     0.072100000000    -0.0856869  
C438     C      0.060050000000     0.092270000000     0.090250000000     0.0677452  
C439     C      0.023550000000     0.058860000000     0.115540000000     0.0675485  
C440     C      0.038330000000     0.038990000000     0.097910000000    -0.0850079  
C441     C      0.067290000000     0.277710000000     0.281390000000    -0.0868623  
C442     C      0.057990000000     0.304690000000     0.276540000000     0.0339665  
C443     C      0.035400000000     0.311580000000     0.253190000000    -0.0855597  
C444     C      0.020950000000     0.291400000000     0.235830000000     0.067956   
C445     C      0.053090000000     0.258150000000     0.263470000000     0.0687558  
C446     C      0.070610000000     0.325190000000     0.296490000000     0.0333843  
C447     C      0.059230000000     0.321720000000     0.323380000000    -0.0857848  
C448     C      0.073840000000     0.339880000000     0.342580000000     0.0676535  
C449     C      0.110120000000     0.365230000000     0.309120000000     0.0675959  
C450     C      0.095370000000     0.347590000000     0.289260000000    -0.0851651  
C451     C      0.096130000000     0.002310000000     0.288860000000    -0.0842027  
C452     C      0.072460000000     0.025210000000     0.295860000000     0.0332043  
C453     C      0.061660000000     0.029300000000     0.322760000000    -0.0859163  
C454     C      0.075700000000     0.011180000000     0.342180000000     0.0669316  
C455     C      0.110390000000     0.984750000000     0.308920000000     0.0669785  
C456     C      0.060350000000     0.045520000000     0.275590000000     0.0335943  
C457     C      0.071110000000     0.072410000000     0.279760000000    -0.086039   
C458     C      0.057160000000     0.091860000000     0.261640000000     0.0667945  
C459     C      0.022610000000     0.058670000000     0.235070000000     0.0677376  
C460     C      0.036780000000     0.038580000000     0.252620000000    -0.085144   
C461     C      0.847950000000     0.311620000000     0.252970000000    -0.0852493  
C462     C      0.825050000000     0.304740000000     0.276200000000     0.0333742  
C463     C      0.815490000000     0.277770000000     0.280940000000    -0.0857413  
C464     C      0.829770000000     0.258220000000     0.263030000000     0.0668081  
C465     C      0.862460000000     0.291450000000     0.235620000000     0.0675264  
C466     C      0.812460000000     0.325210000000     0.296200000000     0.0335809  
C467     C      0.823770000000     0.321660000000     0.323090000000    -0.0860251  
C468     C      0.809250000000     0.339810000000     0.342320000000     0.0673156  
C469     C      0.773130000000     0.365300000000     0.308910000000     0.0676557  
C470     C      0.787800000000     0.347670000000     0.289010000000    -0.0852785  
C471     C      0.037060000000     0.311150000000     0.097370000000    -0.0852778  
C472     C      0.060970000000     0.304000000000     0.074600000000     0.0333499  
C473     C      0.071070000000     0.277020000000     0.070450000000    -0.0858814  
C474     C      0.056220000000     0.257700000000     0.088400000000     0.067053   
C475     C      0.022050000000     0.291180000000     0.114810000000     0.0674927  
C476     C      0.073980000000     0.324160000000     0.054400000000     0.0339692  
C477     C      0.063970000000     0.319920000000     0.027410000000    -0.0868349  
C478     C      0.078660000000     0.337880000000     0.008050000000     0.0699483  
C479     C      0.112570000000     0.364450000000     0.041510000000     0.0676675  
C480     C      0.097700000000     0.347010000000     0.061510000000    -0.0855866  
C481     C      0.120940000000     0.375760000000     0.495150000000     0.384661   
C482     C      0.765280000000     0.376970000000     0.855230000000     0.38242    
C483     C      0.763440000000     0.375920000000     0.495000000000     0.385073   
C484     C      0.118100000000     0.376930000000     0.855410000000     0.383398   
C485     C      0.118460000000     0.973540000000     0.855310000000     0.382425   
C486     C      0.762660000000     0.974750000000     0.495090000000     0.385087   
C487     C      0.764640000000     0.973700000000     0.855150000000     0.381972   
C488     C      0.121470000000     0.974720000000     0.495280000000     0.384985   
C489     C      0.013490000000     0.244850000000     0.626120000000     0.384466   
C490     C      0.868420000000     0.105210000000     0.626990000000     0.382917   
C491     C      0.870890000000     0.244930000000     0.625910000000     0.385035   
C492     C      0.015660000000     0.105150000000     0.627240000000     0.383171   
C493     C      0.014690000000     0.105060000000     0.723900000000     0.38226    
C494     C      0.870990000000     0.245020000000     0.724760000000     0.384041   
C495     C      0.868420000000     0.105120000000     0.723640000000     0.383056   
C496     C      0.012320000000     0.244980000000     0.725010000000     0.385183   
C497     C      0.817990000000     0.031000000000     0.527770000000    -0.0859747  
C498     C      0.808540000000     0.026250000000     0.554760000000     0.0332577  
C499     C      0.785760000000     0.002990000000     0.561680000000    -0.0844955  
C500     C      0.771260000000     0.985630000000     0.541520000000     0.0671384  
C501     C      0.803730000000     0.013080000000     0.508230000000     0.0671082  
C502     C      0.821150000000     0.046250000000     0.575220000000     0.0337441  
C503     C      0.845730000000     0.039040000000     0.597710000000    -0.0852473  
C504     C      0.860430000000     0.058920000000     0.615350000000     0.0678798  
C505     C      0.824480000000     0.092360000000     0.589800000000     0.0674588  
C506     C      0.809930000000     0.073130000000     0.571640000000    -0.0859565  
C507     C      0.786590000000     0.002420000000     0.788620000000    -0.0841075  
C508     C      0.810220000000     0.025360000000     0.795560000000     0.0331892  
C509     C      0.821060000000     0.029520000000     0.822440000000    -0.0851527  
C510     C      0.807140000000     0.011410000000     0.841910000000     0.0672719  
C511     C      0.772440000000     0.984880000000     0.808730000000     0.0672078  
C512     C      0.822320000000     0.045630000000     0.775240000000     0.0338399  
C513     C      0.846130000000     0.038670000000     0.752370000000    -0.0851609  
C514     C      0.860410000000     0.058740000000     0.734830000000     0.0680467  
C515     C      0.825470000000     0.091940000000     0.761200000000     0.0676446  
C516     C      0.811400000000     0.072510000000     0.779300000000    -0.085758   
C517     C      0.820840000000     0.320170000000     0.527130000000    -0.0868676  
C518     C      0.810820000000     0.324340000000     0.554130000000     0.0336293  
C519     C      0.787010000000     0.347140000000     0.561300000000    -0.0855963  
C520     C      0.772050000000     0.364590000000     0.541340000000     0.0676429  
C521     C      0.806030000000     0.338140000000     0.507810000000     0.0681448  
C522     C      0.823840000000     0.304140000000     0.574290000000     0.0335596  
C523     C      0.813850000000     0.277160000000     0.570050000000    -0.0868996  
C524     C      0.828570000000     0.257810000000     0.588020000000     0.0678368  
C525     C      0.862440000000     0.291270000000     0.614600000000     0.067462   
C526     C      0.847550000000     0.311260000000     0.597150000000    -0.0855352  
C527     C      0.066480000000     0.031060000000     0.528050000000    -0.086745   
C528     C      0.075840000000     0.026230000000     0.555040000000     0.0336535  
C529     C      0.098510000000     0.002910000000     0.561920000000    -0.0845534  
C530     C      0.112960000000     0.985560000000     0.541730000000     0.0672818  
C531     C      0.080670000000     0.013150000000     0.508480000000     0.0689439  
C532     C      0.063220000000     0.046190000000     0.575550000000     0.0335477  
C533     C      0.074690000000     0.073050000000     0.572100000000    -0.0857565  
C534     C      0.060050000000     0.092270000000     0.590250000000     0.0676539  
C535     C      0.023550000000     0.058860000000     0.615540000000     0.0675907  
C536     C      0.038330000000     0.038990000000     0.597910000000    -0.0851019  
C537     C      0.067290000000     0.277710000000     0.781390000000    -0.086864   
C538     C      0.057990000000     0.304690000000     0.776540000000     0.0339649  
C539     C      0.035400000000     0.311580000000     0.753190000000    -0.0855532  
C540     C      0.020950000000     0.291400000000     0.735830000000     0.067969   
C541     C      0.053090000000     0.258150000000     0.763470000000     0.0687545  
C542     C      0.070610000000     0.325190000000     0.796490000000     0.0333952  
C543     C      0.059230000000     0.321720000000     0.823380000000    -0.0858135  
C544     C      0.073840000000     0.339880000000     0.842580000000     0.067682   
C545     C      0.110120000000     0.365230000000     0.809120000000     0.0676116  
C546     C      0.095370000000     0.347590000000     0.789260000000    -0.0851647  
C547     C      0.096130000000     0.002310000000     0.788870000000    -0.0841392  
C548     C      0.072460000000     0.025210000000     0.795860000000     0.0331931  
C549     C      0.061660000000     0.029300000000     0.822760000000    -0.0859253  
C550     C      0.075700000000     0.011180000000     0.842180000000     0.066936   
C551     C      0.110390000000     0.984750000000     0.808920000000     0.0669893  
C552     C      0.060350000000     0.045520000000     0.775590000000     0.0335882  
C553     C      0.071110000000     0.072410000000     0.779760000000    -0.0859982  
C554     C      0.057160000000     0.091860000000     0.761650000000     0.0666655  
C555     C      0.022610000000     0.058670000000     0.735070000000     0.0677808  
C556     C      0.036780000000     0.038580000000     0.752620000000    -0.0851474  
C557     C      0.847950000000     0.311620000000     0.752970000000    -0.0852422  
C558     C      0.825050000000     0.304740000000     0.776200000000     0.0333768  
C559     C      0.815490000000     0.277770000000     0.780940000000    -0.0857366  
C560     C      0.829770000000     0.258220000000     0.763030000000     0.0667938  
C561     C      0.862460000000     0.291450000000     0.735620000000     0.0675343  
C562     C      0.812460000000     0.325210000000     0.796200000000     0.0335754  
C563     C      0.823770000000     0.321660000000     0.823080000000    -0.0859245  
C564     C      0.809250000000     0.339810000000     0.842330000000     0.0671793  
C565     C      0.773130000000     0.365300000000     0.808910000000     0.0676564  
C566     C      0.787800000000     0.347670000000     0.789010000000    -0.0852619  
C567     C      0.037060000000     0.311150000000     0.597370000000    -0.0853655  
C568     C      0.060970000000     0.304000000000     0.574600000000     0.0334616  
C569     C      0.071070000000     0.277020000000     0.570450000000    -0.0859815  
C570     C      0.056220000000     0.257700000000     0.588400000000     0.067028   
C571     C      0.022050000000     0.291180000000     0.614810000000     0.0675167  
C572     C      0.073980000000     0.324160000000     0.554400000000     0.0334808  
C573     C      0.063970000000     0.319920000000     0.527410000000    -0.0859262  
C574     C      0.078660000000     0.337880000000     0.508050000000     0.0671354  
C575     C      0.112570000000     0.364450000000     0.541510000000     0.067533   
C576     C      0.097700000000     0.347010000000     0.561510000000    -0.0854249  
C577     C      0.120940000000     0.875760000000     0.995150000000     0.380851   
C578     C      0.765280000000     0.876970000000     0.355230000000     0.382427   
C579     C      0.763440000000     0.875920000000     0.995000000000     0.381165   
C580     C      0.118100000000     0.876930000000     0.355420000000     0.383253   
C581     C      0.118460000000     0.473540000000     0.355310000000     0.382244   
C582     C      0.762660000000     0.474750000000     0.995090000000     0.381214   
C583     C      0.764640000000     0.473700000000     0.355150000000     0.382206   
C584     C      0.121470000000     0.474720000000     0.995280000000     0.381109   
C585     C      0.013490000000     0.744850000000     0.126130000000     0.384521   
C586     C      0.868420000000     0.605210000000     0.126990000000     0.382935   
C587     C      0.870890000000     0.744930000000     0.125910000000     0.385065   
C588     C      0.015660000000     0.605150000000     0.127240000000     0.383097   
C589     C      0.014690000000     0.605060000000     0.223900000000     0.382155   
C590     C      0.870990000000     0.745020000000     0.224760000000     0.38404    
C591     C      0.868420000000     0.605120000000     0.223640000000     0.383046   
C592     C      0.012320000000     0.744980000000     0.225010000000     0.385083   
C593     C      0.817990000000     0.531000000000     0.027770000000    -0.0869756  
C594     C      0.808540000000     0.526250000000     0.054760000000     0.0340214  
C595     C      0.785760000000     0.502990000000     0.061680000000    -0.085593   
C596     C      0.771260000000     0.485630000000     0.041520000000     0.0678928  
C597     C      0.803730000000     0.513080000000     0.008230000000     0.0696736  
C598     C      0.821150000000     0.546250000000     0.075220000000     0.0334729  
C599     C      0.845730000000     0.539040000000     0.097710000000    -0.0851257  
C600     C      0.860430000000     0.558920000000     0.115350000000     0.0678356  
C601     C      0.824480000000     0.592360000000     0.089800000000     0.0674513  
C602     C      0.809930000000     0.573130000000     0.071640000000    -0.0858025  
C603     C      0.786590000000     0.502420000000     0.288630000000    -0.0850318  
C604     C      0.810220000000     0.525360000000     0.295550000000     0.0334344  
C605     C      0.821060000000     0.529520000000     0.322440000000    -0.0852337  
C606     C      0.807140000000     0.511410000000     0.341910000000     0.0670977  
C607     C      0.772440000000     0.484880000000     0.308730000000     0.067771   
C608     C      0.822320000000     0.545630000000     0.275240000000     0.0336781  
C609     C      0.846130000000     0.538670000000     0.252370000000    -0.0851286  
C610     C      0.860410000000     0.558740000000     0.234830000000     0.0680001  
C611     C      0.825470000000     0.591940000000     0.261200000000     0.0676125  
C612     C      0.811400000000     0.572510000000     0.279300000000    -0.0857003  
C613     C      0.820840000000     0.820170000000     0.027130000000    -0.0877791  
C614     C      0.810820000000     0.824340000000     0.054130000000     0.0341178  
C615     C      0.787010000000     0.847140000000     0.061300000000    -0.0857731  
C616     C      0.772050000000     0.864590000000     0.041330000000     0.0678327  
C617     C      0.806030000000     0.838140000000     0.007810000000     0.0709594  
C618     C      0.823840000000     0.804140000000     0.074290000000     0.033451   
C619     C      0.813850000000     0.777160000000     0.070050000000    -0.086801   
C620     C      0.828570000000     0.757810000000     0.088020000000     0.0678679  
C621     C      0.862440000000     0.791270000000     0.114600000000     0.0674569  
C622     C      0.847550000000     0.811260000000     0.097150000000    -0.085456   
C623     C      0.066480000000     0.531060000000     0.028050000000    -0.0877454  
C624     C      0.075840000000     0.526230000000     0.055040000000     0.0344142  
C625     C      0.098510000000     0.502910000000     0.061920000000    -0.0856494  
C626     C      0.112960000000     0.485560000000     0.041730000000     0.0680349  
C627     C      0.080670000000     0.513150000000     0.008480000000     0.0715095  
C628     C      0.063220000000     0.546190000000     0.075550000000     0.0332819  
C629     C      0.074690000000     0.573050000000     0.072100000000    -0.0856279  
C630     C      0.060050000000     0.592270000000     0.090250000000     0.0677104  
C631     C      0.023550000000     0.558860000000     0.115540000000     0.0675086  
C632     C      0.038330000000     0.538990000000     0.097910000000    -0.0849652  
C633     C      0.067290000000     0.777710000000     0.281390000000    -0.0868604  
C634     C      0.057990000000     0.804690000000     0.276540000000     0.0339649  
C635     C      0.035400000000     0.811580000000     0.253190000000    -0.0855599  
C636     C      0.020950000000     0.791400000000     0.235830000000     0.0679547  
C637     C      0.053090000000     0.758150000000     0.263470000000     0.0687569  
C638     C      0.070610000000     0.825190000000     0.296490000000     0.0333842  
C639     C      0.059230000000     0.821720000000     0.323380000000    -0.0857859  
C640     C      0.073840000000     0.839880000000     0.342580000000     0.0676519  
C641     C      0.110120000000     0.865230000000     0.309120000000     0.0675965  
C642     C      0.095370000000     0.847590000000     0.289260000000    -0.0851724  
C643     C      0.096130000000     0.502310000000     0.288860000000    -0.0851496  
C644     C      0.072460000000     0.525210000000     0.295860000000     0.0334913  
C645     C      0.061660000000     0.529300000000     0.322760000000    -0.0860206  
C646     C      0.075700000000     0.511180000000     0.342180000000     0.0666952  
C647     C      0.110390000000     0.484750000000     0.308920000000     0.0676149  
C648     C      0.060350000000     0.545520000000     0.275590000000     0.0334199  
C649     C      0.071110000000     0.572410000000     0.279760000000    -0.0859701  
C650     C      0.057160000000     0.591860000000     0.261640000000     0.0667515  
C651     C      0.022610000000     0.558660000000     0.235070000000     0.0676212  
C652     C      0.036780000000     0.538580000000     0.252620000000    -0.0850777  
C653     C      0.847950000000     0.811620000000     0.252970000000    -0.0852497  
C654     C      0.825050000000     0.804740000000     0.276200000000     0.0333731  
C655     C      0.815490000000     0.777770000000     0.280940000000    -0.0857397  
C656     C      0.829770000000     0.758220000000     0.263030000000     0.0668093  
C657     C      0.862460000000     0.791450000000     0.235620000000     0.0675252  
C658     C      0.812460000000     0.825210000000     0.296200000000     0.0335795  
C659     C      0.823770000000     0.821660000000     0.323090000000    -0.0860254  
C660     C      0.809250000000     0.839810000000     0.342320000000     0.0673135  
C661     C      0.773130000000     0.865300000000     0.308910000000     0.0676505  
C662     C      0.787800000000     0.847670000000     0.289010000000    -0.0852825  
C663     C      0.037060000000     0.811150000000     0.097370000000    -0.0852781  
C664     C      0.060970000000     0.804000000000     0.074600000000     0.0333488  
C665     C      0.071070000000     0.777020000000     0.070450000000    -0.0858798  
C666     C      0.056220000000     0.757700000000     0.088400000000     0.0670542  
C667     C      0.022050000000     0.791180000000     0.114810000000     0.0674916  
C668     C      0.073980000000     0.824160000000     0.054400000000     0.0339684  
C669     C      0.063970000000     0.819920000000     0.027410000000    -0.0868352  
C670     C      0.078660000000     0.837880000000     0.008050000000     0.0699485  
C671     C      0.112570000000     0.864450000000     0.041510000000     0.0676633  
C672     C      0.097700000000     0.847010000000     0.061510000000    -0.0855904  
C673     C      0.120940000000     0.875760000000     0.495150000000     0.38466    
C674     C      0.765280000000     0.876970000000     0.855230000000     0.382418   
C675     C      0.763440000000     0.875920000000     0.495000000000     0.385071   
C676     C      0.118100000000     0.876930000000     0.855410000000     0.383396   
C677     C      0.118460000000     0.473540000000     0.855310000000     0.382462   
C678     C      0.762660000000     0.474750000000     0.495090000000     0.385126   
C679     C      0.764640000000     0.473700000000     0.855150000000     0.382009   
C680     C      0.121470000000     0.474720000000     0.495280000000     0.385023   
C681     C      0.013490000000     0.744850000000     0.626120000000     0.384467   
C682     C      0.868420000000     0.605210000000     0.626990000000     0.382912   
C683     C      0.870890000000     0.744930000000     0.625910000000     0.385037   
C684     C      0.015660000000     0.605150000000     0.627240000000     0.383166   
C685     C      0.014690000000     0.605060000000     0.723900000000     0.38225    
C686     C      0.870990000000     0.745020000000     0.724760000000     0.384042   
C687     C      0.868420000000     0.605120000000     0.723640000000     0.383052   
C688     C      0.012320000000     0.744980000000     0.725010000000     0.385184   
C689     C      0.817990000000     0.531000000000     0.527770000000    -0.0860781  
C690     C      0.808540000000     0.526250000000     0.554760000000     0.0335424  
C691     C      0.785760000000     0.502990000000     0.561680000000    -0.0854444  
C692     C      0.771260000000     0.485630000000     0.541520000000     0.0677769  
C693     C      0.803730000000     0.513080000000     0.508230000000     0.0668716  
C694     C      0.821150000000     0.546250000000     0.575220000000     0.0335772  
C695     C      0.845730000000     0.539040000000     0.597710000000    -0.0852043  
C696     C      0.860430000000     0.558920000000     0.615350000000     0.0678396  
C697     C      0.824480000000     0.592360000000     0.589800000000     0.0674237  
C698     C      0.809930000000     0.573130000000     0.571640000000    -0.0858971  
C699     C      0.786590000000     0.502420000000     0.788620000000    -0.0850563  
C700     C      0.810220000000     0.525360000000     0.795560000000     0.0334734  
C701     C      0.821060000000     0.529520000000     0.822440000000    -0.0852561  
C702     C      0.807140000000     0.511410000000     0.841910000000     0.067034   
C703     C      0.772440000000     0.484880000000     0.808730000000     0.0678458  
C704     C      0.822320000000     0.545630000000     0.775240000000     0.0336734  
C705     C      0.846130000000     0.538670000000     0.752370000000    -0.0851178  
C706     C      0.860410000000     0.558740000000     0.734830000000     0.068007   
C707     C      0.825470000000     0.591940000000     0.761200000000     0.0676097  
C708     C      0.811400000000     0.572510000000     0.779300000000    -0.0856989  
C709     C      0.820840000000     0.820170000000     0.527130000000    -0.0868676  
C710     C      0.810820000000     0.824340000000     0.554130000000     0.0336281  
C711     C      0.787010000000     0.847140000000     0.561300000000    -0.0856001  
C712     C      0.772050000000     0.864590000000     0.541340000000     0.0676382  
C713     C      0.806030000000     0.838140000000     0.507810000000     0.0681434  
C714     C      0.823840000000     0.804140000000     0.574290000000     0.0335586  
C715     C      0.813850000000     0.777160000000     0.570050000000    -0.086898   
C716     C      0.828570000000     0.757810000000     0.588020000000     0.067838   
C717     C      0.862440000000     0.791270000000     0.614600000000     0.0674609  
C718     C      0.847550000000     0.811260000000     0.597150000000    -0.0855356  
C719     C      0.066480000000     0.531060000000     0.528050000000    -0.0868472  
C720     C      0.075840000000     0.526230000000     0.555040000000     0.0339372  
C721     C      0.098510000000     0.502910000000     0.561920000000    -0.0855008  
C722     C      0.112960000000     0.485560000000     0.541730000000     0.0679192  
C723     C      0.080670000000     0.513150000000     0.508480000000     0.0687066  
C724     C      0.063220000000     0.546190000000     0.575550000000     0.0333814  
C725     C      0.074690000000     0.573050000000     0.572100000000    -0.0856974  
C726     C      0.060050000000     0.592270000000     0.590250000000     0.0676189  
C727     C      0.023550000000     0.558860000000     0.615540000000     0.0675506  
C728     C      0.038330000000     0.538990000000     0.597910000000    -0.0850591  
C729     C      0.067290000000     0.777710000000     0.781390000000    -0.0868621  
C730     C      0.057990000000     0.804690000000     0.776540000000     0.0339633  
C731     C      0.035400000000     0.811580000000     0.753190000000    -0.0855534  
C732     C      0.020950000000     0.791400000000     0.735830000000     0.0679677  
C733     C      0.053090000000     0.758150000000     0.763470000000     0.0687556  
C734     C      0.070610000000     0.825190000000     0.796490000000     0.033395   
C735     C      0.059230000000     0.821720000000     0.823380000000    -0.0858146  
C736     C      0.073840000000     0.839880000000     0.842580000000     0.0676803  
C737     C      0.110120000000     0.865230000000     0.809120000000     0.0676122  
C738     C      0.095370000000     0.847590000000     0.789260000000    -0.085172   
C739     C      0.096130000000     0.502310000000     0.788870000000    -0.0850896  
C740     C      0.072460000000     0.525210000000     0.795860000000     0.0334812  
C741     C      0.061660000000     0.529300000000     0.822760000000    -0.08603    
C742     C      0.075700000000     0.511180000000     0.842180000000     0.0666985  
C743     C      0.110390000000     0.484750000000     0.808920000000     0.0676283  
C744     C      0.060350000000     0.545520000000     0.775590000000     0.0334131  
C745     C      0.071110000000     0.572410000000     0.779760000000    -0.085929   
C746     C      0.057160000000     0.591860000000     0.761650000000     0.0666223  
C747     C      0.022610000000     0.558660000000     0.735070000000     0.0676643  
C748     C      0.036780000000     0.538580000000     0.752620000000    -0.085081   
C749     C      0.847950000000     0.811620000000     0.752970000000    -0.0852426  
C750     C      0.825050000000     0.804740000000     0.776200000000     0.0333756  
C751     C      0.815490000000     0.777770000000     0.780940000000    -0.0857351  
C752     C      0.829770000000     0.758220000000     0.763030000000     0.0667949  
C753     C      0.862460000000     0.791450000000     0.735620000000     0.0675331  
C754     C      0.812460000000     0.825210000000     0.796200000000     0.0335739  
C755     C      0.823770000000     0.821660000000     0.823080000000    -0.0859249  
C756     C      0.809250000000     0.839810000000     0.842330000000     0.0671771  
C757     C      0.773130000000     0.865300000000     0.808910000000     0.0676512  
C758     C      0.787800000000     0.847670000000     0.789010000000    -0.0852659  
C759     C      0.037060000000     0.811150000000     0.597370000000    -0.0853658  
C760     C      0.060970000000     0.804000000000     0.574600000000     0.0334606  
C761     C      0.071070000000     0.777020000000     0.570450000000    -0.08598    
C762     C      0.056220000000     0.757700000000     0.588400000000     0.0670292  
C763     C      0.022050000000     0.791180000000     0.614810000000     0.0675156  
C764     C      0.073980000000     0.824160000000     0.554400000000     0.0334797  
C765     C      0.063970000000     0.819920000000     0.527410000000    -0.0859262  
C766     C      0.078660000000     0.837880000000     0.508050000000     0.0671346  
C767     C      0.112570000000     0.864450000000     0.541510000000     0.0675286  
C768     C      0.097700000000     0.847010000000     0.561510000000    -0.0854286  
H1       H      0.191800000000     0.367010000000     0.387770000000     0.20725    
H2       H      0.288000000000     0.925330000000     0.965760000000     0.201293   
H3       H      0.691670000000     0.983430000000     0.387790000000     0.207329   
H4       H      0.595920000000     0.925210000000     0.965970000000     0.203503   
H5       H      0.346200000000     0.400220000000     0.934840000000     0.124776   
H6       H      0.353050000000     0.952390000000     0.419230000000     0.191669   
H7       H      0.230710000000     0.017520000000     0.935130000000     0.141092   
H8       H      0.651100000000     0.021420000000     0.417230000000     0.190164   
H9       H      0.537330000000     0.950710000000     0.416000000000     0.134269   
H10      H      0.530970000000     0.398160000000     0.932790000000     0.186932   
H11      H      0.652760000000     0.333050000000     0.935930000000     0.142564   
H12      H      0.231660000000     0.329260000000     0.416760000000     0.190611   
H13      H      0.600790000000     0.021580000000     0.430200000000     0.203956   
H14      H      0.534280000000     0.366940000000     0.920670000000     0.20607    
H15      H      0.281310000000     0.328700000000     0.930640000000     0.203404   
H16      H      0.349230000000     0.982920000000     0.432950000000     0.204831   
H17      H      0.442170000000     0.137610000000     0.117160000000     0.207151   
H18      H      0.345920000000     0.215750000000     0.175260000000     0.19878    
H19      H      0.441510000000     0.137630000000     0.233610000000     0.207198   
H20      H      0.537980000000     0.215630000000     0.175620000000     0.203621   
H21      H      0.288040000000     0.188410000000     0.147470000000     0.124908   
H22      H      0.280800000000     0.181750000000     0.201640000000     0.186708   
H23      H      0.402480000000     0.185140000000     0.267590000000     0.141873   
H24      H      0.481850000000     0.166850000000     0.271690000000     0.190001   
H25      H      0.596220000000     0.166090000000     0.201020000000     0.133901   
H26      H      0.602960000000     0.182860000000     0.148510000000     0.186761   
H27      H      0.481670000000     0.185780000000     0.083300000000     0.14301    
H28      H      0.402800000000     0.166520000000     0.079330000000     0.190752   
H29      H      0.531960000000     0.180110000000     0.272050000000     0.203812   
H30      H      0.599870000000     0.169710000000     0.117690000000     0.206253   
H31      H      0.353440000000     0.180770000000     0.078570000000     0.203786   
H32      H      0.283870000000     0.171030000000     0.233390000000     0.206127   
H33      H      0.277970000000     0.998710000000     0.082420000000     0.0509693  
H34      H      0.252770000000     0.968160000000     0.047650000000     0.0284714  
H35      H      0.311430000000     0.017870000000     0.987570000000     0.0232711  
H36      H      0.336080000000     0.048660000000     0.021740000000     0.051466   
H37      H      0.354850000000     0.018340000000     0.101110000000     0.0509664  
H38      H      0.380490000000     0.052640000000     0.132110000000     0.0287978  
H39      H      0.315430000000     0.112990000000     0.085840000000     0.0278904  
H40      H      0.290340000000     0.079350000000     0.054660000000     0.0516843  
H41      H      0.339890000000     0.046890000000     0.328450000000     0.051834   
H42      H      0.315850000000     0.015780000000     0.362520000000     0.0299066  
H43      H      0.253140000000     0.967730000000     0.302630000000     0.0290452  
H44      H      0.277800000000     0.998570000000     0.267950000000     0.0509506  
H45      H      0.354980000000     0.017990000000     0.248590000000     0.0515209  
H46      H      0.379880000000     0.052610000000     0.217760000000     0.0289896  
H47      H      0.316710000000     0.112550000000     0.265500000000     0.027605   
H48      H      0.292430000000     0.078540000000     0.296610000000     0.051807   
H49      H      0.278770000000     0.350970000000     0.082070000000     0.0507635  
H50      H      0.252720000000     0.381660000000     0.047620000000     0.0281709  
H51      H      0.314210000000     0.333770000000     0.987120000000     0.0211204  
H52      H      0.339740000000     0.302900000000     0.020920000000     0.0514374  
H53      H      0.295020000000     0.270970000000     0.052740000000     0.0508405  
H54      H      0.320400000000     0.237140000000     0.083600000000     0.0226249  
H55      H      0.381670000000     0.297530000000     0.131730000000     0.0280179  
H56      H      0.355770000000     0.332020000000     0.101040000000     0.0507091  
H57      H      0.606230000000     0.998560000000     0.082660000000     0.0509298  
H58      H      0.631350000000     0.968040000000     0.047830000000     0.0284829  
H59      H      0.573030000000     0.018000000000     0.987820000000     0.0217867  
H60      H      0.548490000000     0.048770000000     0.022060000000     0.0516468  
H61      H      0.594510000000     0.079260000000     0.055220000000     0.0518787  
H62      H      0.569320000000     0.112880000000     0.086400000000     0.0271659  
H63      H      0.503230000000     0.052590000000     0.132180000000     0.0286987  
H64      H      0.529020000000     0.018300000000     0.101210000000     0.050938   
H65      H      0.527730000000     0.332320000000     0.248830000000     0.0512917  
H66      H      0.502610000000     0.297510000000     0.218290000000     0.0282394  
H67      H      0.560660000000     0.237490000000     0.268340000000     0.0236298  
H68      H      0.585230000000     0.271700000000     0.299120000000     0.0510168  
H69      H      0.539490000000     0.304820000000     0.329610000000     0.0516437  
H70      H      0.564650000000     0.336020000000     0.363210000000     0.0271309  
H71      H      0.630340000000     0.381900000000     0.302830000000     0.028649   
H72      H      0.604610000000     0.350900000000     0.268560000000     0.0508484  
H73      H      0.542800000000     0.046640000000     0.328820000000     0.0506393  
H74      H      0.567060000000     0.015520000000     0.362810000000     0.0261837  
H75      H      0.629740000000     0.967640000000     0.302770000000     0.0290181  
H76      H      0.604900000000     0.998500000000     0.268170000000     0.0509358  
H77      H      0.589890000000     0.078430000000     0.297150000000     0.0506563  
H78      H      0.565790000000     0.112470000000     0.266040000000     0.0262149  
H79      H      0.503350000000     0.052550000000     0.217900000000     0.0289177  
H80      H      0.528040000000     0.017900000000     0.248750000000     0.051465   
H81      H      0.297310000000     0.271770000000     0.298580000000     0.0509822  
H82      H      0.321980000000     0.237570000000     0.267820000000     0.027237   
H83      H      0.381060000000     0.297550000000     0.218180000000     0.0282007  
H84      H      0.355820000000     0.332350000000     0.248690000000     0.0512371  
H85      H      0.343400000000     0.304700000000     0.329290000000     0.0514842  
H86      H      0.318380000000     0.335870000000     0.362950000000     0.0275934  
H87      H      0.253010000000     0.382040000000     0.302650000000     0.0287019  
H88      H      0.278610000000     0.351050000000     0.268320000000     0.0508682  
H89      H      0.590050000000     0.270820000000     0.053210000000     0.0518089  
H90      H      0.564470000000     0.237020000000     0.084040000000     0.0273732  
H91      H      0.502640000000     0.297450000000     0.131850000000     0.0281456  
H92      H      0.528750000000     0.331910000000     0.101190000000     0.0507163  
H93      H      0.545130000000     0.302610000000     0.021240000000     0.0523302  
H94      H      0.570470000000     0.333460000000     0.987370000000     0.0253456  
H95      H      0.631820000000     0.381570000000     0.047760000000     0.0282388  
H96      H      0.605940000000     0.350890000000     0.082270000000     0.050765   
H97      H      0.191800000000     0.367010000000     0.887770000000     0.207224   
H98      H      0.288000000000     0.925330000000     0.465760000000     0.201681   
H99      H      0.691670000000     0.983430000000     0.887790000000     0.207297   
H100     H      0.595920000000     0.925210000000     0.465970000000     0.203886   
H101     H      0.346200000000     0.400220000000     0.434840000000     0.124916   
H102     H      0.353050000000     0.952390000000     0.919230000000     0.191567   
H103     H      0.230710000000     0.017520000000     0.435130000000     0.141282   
H104     H      0.651100000000     0.021420000000     0.917230000000     0.190029   
H105     H      0.537330000000     0.950710000000     0.915990000000     0.134047   
H106     H      0.530970000000     0.398160000000     0.432790000000     0.1871     
H107     H      0.652760000000     0.333050000000     0.435930000000     0.142761   
H108     H      0.231660000000     0.329260000000     0.916760000000     0.190477   
H109     H      0.600790000000     0.021580000000     0.930200000000     0.203736   
H110     H      0.534280000000     0.366940000000     0.420670000000     0.206228   
H111     H      0.281310000000     0.328700000000     0.430640000000     0.203628   
H112     H      0.349230000000     0.982920000000     0.932950000000     0.204612   
H113     H      0.442170000000     0.137610000000     0.617160000000     0.207128   
H114     H      0.345920000000     0.215750000000     0.675260000000     0.198805   
H115     H      0.441510000000     0.137630000000     0.733610000000     0.207186   
H116     H      0.537980000000     0.215630000000     0.675620000000     0.203628   
H117     H      0.288040000000     0.188410000000     0.647470000000     0.124903   
H118     H      0.280800000000     0.181750000000     0.701640000000     0.186712   
H119     H      0.402480000000     0.185140000000     0.767590000000     0.141846   
H120     H      0.481850000000     0.166850000000     0.771690000000     0.189991   
H121     H      0.596220000000     0.166090000000     0.701020000000     0.13392    
H122     H      0.602960000000     0.182860000000     0.648510000000     0.186759   
H123     H      0.481670000000     0.185780000000     0.583290000000     0.142908   
H124     H      0.402800000000     0.166520000000     0.579330000000     0.190591   
H125     H      0.531960000000     0.180110000000     0.772050000000     0.203798   
H126     H      0.599870000000     0.169710000000     0.617690000000     0.206197   
H127     H      0.353440000000     0.180770000000     0.578570000000     0.203613   
H128     H      0.283870000000     0.171030000000     0.733390000000     0.206122   
H129     H      0.277970000000     0.998710000000     0.582420000000     0.0509055  
H130     H      0.252770000000     0.968160000000     0.547650000000     0.0283601  
H131     H      0.311430000000     0.017870000000     0.487560000000     0.0251815  
H132     H      0.336080000000     0.048660000000     0.521740000000     0.0507937  
H133     H      0.354850000000     0.018340000000     0.601110000000     0.0509484  
H134     H      0.380490000000     0.052640000000     0.632110000000     0.0287943  
H135     H      0.315430000000     0.112990000000     0.585840000000     0.0278092  
H136     H      0.290340000000     0.079350000000     0.554660000000     0.0515175  
H137     H      0.339890000000     0.046890000000     0.828450000000     0.0517844  
H138     H      0.315850000000     0.015780000000     0.862510000000     0.0298444  
H139     H      0.253140000000     0.967730000000     0.802620000000     0.0290459  
H140     H      0.277800000000     0.998570000000     0.767940000000     0.0509752  
H141     H      0.354980000000     0.017990000000     0.748590000000     0.0515342  
H142     H      0.379880000000     0.052610000000     0.717760000000     0.0290003  
H143     H      0.316710000000     0.112550000000     0.765500000000     0.0275884  
H144     H      0.292430000000     0.078540000000     0.796610000000     0.051771   
H145     H      0.278770000000     0.350970000000     0.582070000000     0.0506953  
H146     H      0.252720000000     0.381660000000     0.547620000000     0.0280817  
H147     H      0.314210000000     0.333770000000     0.487120000000     0.023023   
H148     H      0.339740000000     0.302900000000     0.520920000000     0.0507592  
H149     H      0.295020000000     0.270970000000     0.552740000000     0.050667   
H150     H      0.320400000000     0.237140000000     0.583600000000     0.022542   
H151     H      0.381670000000     0.297530000000     0.631730000000     0.0280144  
H152     H      0.355770000000     0.332020000000     0.601040000000     0.050693   
H153     H      0.606230000000     0.998560000000     0.582660000000     0.0508667  
H154     H      0.631350000000     0.968040000000     0.547830000000     0.0283719  
H155     H      0.573030000000     0.018000000000     0.487820000000     0.0236842  
H156     H      0.548490000000     0.048770000000     0.522060000000     0.0509748  
H157     H      0.594510000000     0.079260000000     0.555220000000     0.0517062  
H158     H      0.569320000000     0.112880000000     0.586400000000     0.0270982  
H159     H      0.503230000000     0.052590000000     0.632180000000     0.0286895  
H160     H      0.529020000000     0.018300000000     0.601210000000     0.0509238  
H161     H      0.527730000000     0.332320000000     0.748830000000     0.0513053  
H162     H      0.502610000000     0.297510000000     0.718290000000     0.028248   
H163     H      0.560660000000     0.237490000000     0.768340000000     0.0235987  
H164     H      0.585230000000     0.271700000000     0.799120000000     0.0509784  
H165     H      0.539490000000     0.304820000000     0.829610000000     0.051594   
H166     H      0.564650000000     0.336020000000     0.863210000000     0.0270618  
H167     H      0.630340000000     0.381900000000     0.802830000000     0.0286536  
H168     H      0.604610000000     0.350900000000     0.768560000000     0.0508661  
H169     H      0.542800000000     0.046640000000     0.828820000000     0.0505851  
H170     H      0.567060000000     0.015520000000     0.862810000000     0.026122   
H171     H      0.629740000000     0.967640000000     0.802770000000     0.0290279  
H172     H      0.604900000000     0.998500000000     0.768170000000     0.0509089  
H173     H      0.589890000000     0.078430000000     0.797150000000     0.0506106  
H174     H      0.565790000000     0.112470000000     0.766040000000     0.0262324  
H175     H      0.503350000000     0.052550000000     0.717900000000     0.0289234  
H176     H      0.528040000000     0.017900000000     0.748750000000     0.0514808  
H177     H      0.297310000000     0.271770000000     0.798580000000     0.0509442  
H178     H      0.321980000000     0.237570000000     0.767810000000     0.0272263  
H179     H      0.381060000000     0.297550000000     0.718180000000     0.028211   
H180     H      0.355820000000     0.332350000000     0.748690000000     0.0512509  
H181     H      0.343400000000     0.304700000000     0.829290000000     0.0513932  
H182     H      0.318380000000     0.335870000000     0.862950000000     0.0275534  
H183     H      0.253010000000     0.382040000000     0.802650000000     0.0287174  
H184     H      0.278610000000     0.351050000000     0.768320000000     0.0508821  
H185     H      0.590050000000     0.270820000000     0.553210000000     0.0516363  
H186     H      0.564470000000     0.237020000000     0.584040000000     0.0272779  
H187     H      0.502640000000     0.297450000000     0.631850000000     0.0281371  
H188     H      0.528750000000     0.331910000000     0.601190000000     0.0507024  
H189     H      0.545130000000     0.302610000000     0.521240000000     0.0516541  
H190     H      0.570470000000     0.333460000000     0.487370000000     0.0272552  
H191     H      0.631820000000     0.381570000000     0.547750000000     0.0281492  
H192     H      0.605940000000     0.350890000000     0.582270000000     0.050701   
H193     H      0.191800000000     0.867010000000     0.387770000000     0.207251   
H194     H      0.288000000000     0.425330000000     0.965760000000     0.201304   
H195     H      0.691670000000     0.483430000000     0.387790000000     0.207408   
H196     H      0.595920000000     0.425210000000     0.965970000000     0.203512   
H197     H      0.346200000000     0.900220000000     0.934840000000     0.124767   
H198     H      0.353050000000     0.452390000000     0.419230000000     0.191703   
H199     H      0.230710000000     0.517510000000     0.935130000000     0.141065   
H200     H      0.651100000000     0.521420000000     0.417230000000     0.190122   
H201     H      0.537330000000     0.450710000000     0.416000000000     0.134276   
H202     H      0.530970000000     0.898170000000     0.932790000000     0.186699   
H203     H      0.652760000000     0.833050000000     0.935930000000     0.142567   
H204     H      0.231660000000     0.829260000000     0.416760000000     0.190615   
H205     H      0.600790000000     0.521580000000     0.430200000000     0.203917   
H206     H      0.534280000000     0.866940000000     0.920670000000     0.206005   
H207     H      0.281310000000     0.828700000000     0.930640000000     0.203406   
H208     H      0.349230000000     0.482920000000     0.432950000000     0.204933   
H209     H      0.442170000000     0.637610000000     0.117160000000     0.207152   
H210     H      0.345920000000     0.715750000000     0.175260000000     0.198781   
H211     H      0.441510000000     0.637630000000     0.233610000000     0.207199   
H212     H      0.537980000000     0.715630000000     0.175620000000     0.203622   
H213     H      0.288040000000     0.688410000000     0.147470000000     0.124909   
H214     H      0.280800000000     0.681750000000     0.201640000000     0.186708   
H215     H      0.402480000000     0.685140000000     0.267590000000     0.141875   
H216     H      0.481850000000     0.666850000000     0.271690000000     0.190001   
H217     H      0.596220000000     0.666090000000     0.201020000000     0.133899   
H218     H      0.602960000000     0.682860000000     0.148510000000     0.18676    
H219     H      0.481670000000     0.685780000000     0.083300000000     0.143011   
H220     H      0.402800000000     0.666520000000     0.079330000000     0.190752   
H221     H      0.531960000000     0.680110000000     0.272050000000     0.203812   
H222     H      0.599870000000     0.669710000000     0.117690000000     0.206252   
H223     H      0.353440000000     0.680770000000     0.078570000000     0.203787   
H224     H      0.283870000000     0.671030000000     0.233390000000     0.206126   
H225     H      0.277970000000     0.498710000000     0.082420000000     0.0514461  
H226     H      0.252770000000     0.468160000000     0.047650000000     0.0283573  
H227     H      0.311430000000     0.517870000000     0.987570000000     0.0232295  
H228     H      0.336080000000     0.548660000000     0.021740000000     0.0514714  
H229     H      0.354850000000     0.518340000000     0.101110000000     0.0508845  
H230     H      0.380490000000     0.552640000000     0.132110000000     0.0287815  
H231     H      0.315430000000     0.612990000000     0.085840000000     0.0278955  
H232     H      0.290340000000     0.579350000000     0.054660000000     0.0516523  
H233     H      0.339890000000     0.546890000000     0.328450000000     0.0518379  
H234     H      0.315850000000     0.515780000000     0.362520000000     0.0298691  
H235     H      0.253140000000     0.467730000000     0.302630000000     0.0289316  
H236     H      0.277800000000     0.498570000000     0.267950000000     0.0514286  
H237     H      0.354980000000     0.517990000000     0.248590000000     0.0514396  
H238     H      0.379880000000     0.552610000000     0.217760000000     0.0289735  
H239     H      0.316710000000     0.612550000000     0.265500000000     0.0276099  
H240     H      0.292430000000     0.578540000000     0.296610000000     0.0517741  
H241     H      0.278770000000     0.850970000000     0.082070000000     0.0507532  
H242     H      0.252720000000     0.881660000000     0.047620000000     0.028159   
H243     H      0.314210000000     0.833770000000     0.987120000000     0.0211209  
H244     H      0.339740000000     0.802900000000     0.020920000000     0.0514393  
H245     H      0.295020000000     0.770970000000     0.052740000000     0.0508427  
H246     H      0.320400000000     0.737140000000     0.083600000000     0.0226264  
H247     H      0.381670000000     0.797530000000     0.131730000000     0.0280136  
H248     H      0.355770000000     0.832020000000     0.101040000000     0.0506974  
H249     H      0.606230000000     0.498560000000     0.082660000000     0.0514059  
H250     H      0.631350000000     0.468040000000     0.047830000000     0.028369   
H251     H      0.573030000000     0.518000000000     0.987820000000     0.021749   
H252     H      0.548490000000     0.548770000000     0.022060000000     0.0516525  
H253     H      0.594510000000     0.579260000000     0.055220000000     0.0518467  
H254     H      0.569320000000     0.612880000000     0.086400000000     0.0271709  
H255     H      0.503230000000     0.552590000000     0.132180000000     0.0286825  
H256     H      0.529020000000     0.518300000000     0.101210000000     0.0508565  
H257     H      0.527730000000     0.832320000000     0.248830000000     0.0512794  
H258     H      0.502610000000     0.797510000000     0.218290000000     0.0282351  
H259     H      0.560660000000     0.737490000000     0.268340000000     0.0236313  
H260     H      0.585230000000     0.771700000000     0.299120000000     0.051019   
H261     H      0.539490000000     0.804820000000     0.329610000000     0.0516453  
H262     H      0.564650000000     0.836020000000     0.363210000000     0.0271321  
H263     H      0.630340000000     0.881910000000     0.302830000000     0.0286456  
H264     H      0.604610000000     0.850900000000     0.268560000000     0.0508385  
H265     H      0.542800000000     0.546640000000     0.328820000000     0.0506438  
H266     H      0.567060000000     0.515520000000     0.362810000000     0.0261481  
H267     H      0.629740000000     0.467640000000     0.302770000000     0.0289048  
H268     H      0.604900000000     0.498500000000     0.268170000000     0.0514144  
H269     H      0.589890000000     0.578430000000     0.297150000000     0.0506212  
H270     H      0.565790000000     0.612470000000     0.266040000000     0.0262219  
H271     H      0.503350000000     0.552550000000     0.217900000000     0.0289228  
H272     H      0.528040000000     0.517900000000     0.248750000000     0.0513773  
H273     H      0.297310000000     0.771770000000     0.298580000000     0.0509844  
H274     H      0.321980000000     0.737570000000     0.267820000000     0.0272385  
H275     H      0.381060000000     0.797550000000     0.218180000000     0.0281963  
H276     H      0.355820000000     0.832350000000     0.248690000000     0.051225   
H277     H      0.343400000000     0.804700000000     0.329290000000     0.0514854  
H278     H      0.318380000000     0.835870000000     0.362950000000     0.0275941  
H279     H      0.253010000000     0.882040000000     0.302650000000     0.0286894  
H280     H      0.278610000000     0.851050000000     0.268320000000     0.0508578  
H281     H      0.590050000000     0.770820000000     0.053210000000     0.0518112  
H282     H      0.564470000000     0.737020000000     0.084040000000     0.0273748  
H283     H      0.502640000000     0.797450000000     0.131850000000     0.0281413  
H284     H      0.528750000000     0.831910000000     0.101190000000     0.0507047  
H285     H      0.545130000000     0.802610000000     0.021240000000     0.0523323  
H286     H      0.570470000000     0.833460000000     0.987370000000     0.025347   
H287     H      0.631820000000     0.881570000000     0.047760000000     0.028227   
H288     H      0.605940000000     0.850890000000     0.082270000000     0.0507547  
H289     H      0.191800000000     0.867010000000     0.887770000000     0.207225   
H290     H      0.288000000000     0.425330000000     0.465760000000     0.201692   
H291     H      0.691670000000     0.483430000000     0.887790000000     0.207377   
H292     H      0.595920000000     0.425210000000     0.465970000000     0.203895   
H293     H      0.346200000000     0.900220000000     0.434840000000     0.124907   
H294     H      0.353050000000     0.452390000000     0.919230000000     0.1916     
H295     H      0.230710000000     0.517510000000     0.435130000000     0.141255   
H296     H      0.651100000000     0.521420000000     0.917230000000     0.189986   
H297     H      0.537330000000     0.450710000000     0.915990000000     0.134054   
H298     H      0.530970000000     0.898170000000     0.432790000000     0.186867   
H299     H      0.652760000000     0.833050000000     0.435930000000     0.142763   
H300     H      0.231660000000     0.829260000000     0.916760000000     0.19048    
H301     H      0.600790000000     0.521580000000     0.930200000000     0.203696   
H302     H      0.534280000000     0.866940000000     0.420670000000     0.206163   
H303     H      0.281310000000     0.828700000000     0.430640000000     0.20363    
H304     H      0.349230000000     0.482920000000     0.932950000000     0.204714   
H305     H      0.442170000000     0.637610000000     0.617160000000     0.207129   
H306     H      0.345920000000     0.715750000000     0.675260000000     0.198806   
H307     H      0.441510000000     0.637630000000     0.733610000000     0.207187   
H308     H      0.537980000000     0.715630000000     0.675620000000     0.203628   
H309     H      0.288040000000     0.688410000000     0.647470000000     0.124903   
H310     H      0.280800000000     0.681750000000     0.701640000000     0.186711   
H311     H      0.402480000000     0.685140000000     0.767590000000     0.141847   
H312     H      0.481850000000     0.666850000000     0.771690000000     0.189991   
H313     H      0.596220000000     0.666090000000     0.701020000000     0.133918   
H314     H      0.602960000000     0.682860000000     0.648510000000     0.186759   
H315     H      0.481670000000     0.685780000000     0.583290000000     0.142909   
H316     H      0.402800000000     0.666520000000     0.579330000000     0.190591   
H317     H      0.531960000000     0.680110000000     0.772050000000     0.203798   
H318     H      0.599870000000     0.669710000000     0.617690000000     0.206196   
H319     H      0.353440000000     0.680770000000     0.578570000000     0.203614   
H320     H      0.283870000000     0.671030000000     0.733390000000     0.206121   
H321     H      0.277970000000     0.498710000000     0.582420000000     0.0513848  
H322     H      0.252770000000     0.468160000000     0.547650000000     0.0282454  
H323     H      0.311430000000     0.517870000000     0.487560000000     0.0251447  
H324     H      0.336080000000     0.548660000000     0.521740000000     0.0507979  
H325     H      0.354850000000     0.518340000000     0.601110000000     0.050866   
H326     H      0.380490000000     0.552640000000     0.632110000000     0.0287779  
H327     H      0.315430000000     0.612990000000     0.585840000000     0.0278141  
H328     H      0.290340000000     0.579350000000     0.554660000000     0.0514851  
H329     H      0.339890000000     0.546890000000     0.828450000000     0.0517881  
H330     H      0.315850000000     0.515780000000     0.862510000000     0.0298067  
H331     H      0.253140000000     0.467730000000     0.802620000000     0.0289321  
H332     H      0.277800000000     0.498570000000     0.767940000000     0.0514549  
H333     H      0.354980000000     0.517990000000     0.748590000000     0.0514525  
H334     H      0.379880000000     0.552610000000     0.717760000000     0.0289842  
H335     H      0.316710000000     0.612550000000     0.765500000000     0.0275932  
H336     H      0.292430000000     0.578540000000     0.796610000000     0.051738   
H337     H      0.278770000000     0.850970000000     0.582070000000     0.0506849  
H338     H      0.252720000000     0.881660000000     0.547620000000     0.0280697  
H339     H      0.314210000000     0.833770000000     0.487120000000     0.0230242  
H340     H      0.339740000000     0.802900000000     0.520920000000     0.0507607  
H341     H      0.295020000000     0.770970000000     0.552740000000     0.0506691  
H342     H      0.320400000000     0.737140000000     0.583600000000     0.0225435  
H343     H      0.381670000000     0.797530000000     0.631730000000     0.02801    
H344     H      0.355770000000     0.832020000000     0.601040000000     0.0506812  
H345     H      0.606230000000     0.498560000000     0.582660000000     0.0513453  
H346     H      0.631350000000     0.468040000000     0.547830000000     0.0282573  
H347     H      0.573030000000     0.518000000000     0.487820000000     0.0236514  
H348     H      0.548490000000     0.548770000000     0.522060000000     0.0509792  
H349     H      0.594510000000     0.579260000000     0.555220000000     0.0516738  
H350     H      0.569320000000     0.612880000000     0.586400000000     0.0271032  
H351     H      0.503230000000     0.552590000000     0.632180000000     0.0286731  
H352     H      0.529020000000     0.518300000000     0.601210000000     0.0508417  
H353     H      0.527730000000     0.832320000000     0.748830000000     0.051293   
H354     H      0.502610000000     0.797510000000     0.718290000000     0.0282436  
H355     H      0.560660000000     0.737490000000     0.768340000000     0.0236002  
H356     H      0.585230000000     0.771700000000     0.799120000000     0.0509806  
H357     H      0.539490000000     0.804820000000     0.829610000000     0.0515955  
H358     H      0.564650000000     0.836020000000     0.863210000000     0.0270628  
H359     H      0.630340000000     0.881910000000     0.802830000000     0.0286501  
H360     H      0.604610000000     0.850900000000     0.768560000000     0.0508561  
H361     H      0.542800000000     0.546640000000     0.828820000000     0.0505896  
H362     H      0.567060000000     0.515520000000     0.862810000000     0.0260861  
H363     H      0.629740000000     0.467640000000     0.802770000000     0.0289142  
H364     H      0.604900000000     0.498500000000     0.768170000000     0.0513889  
H365     H      0.589890000000     0.578430000000     0.797150000000     0.0505753  
H366     H      0.565790000000     0.612470000000     0.766040000000     0.0262394  
H367     H      0.503350000000     0.552550000000     0.717900000000     0.0289284  
H368     H      0.528040000000     0.517900000000     0.748750000000     0.0513927  
H369     H      0.297310000000     0.771770000000     0.798580000000     0.0509463  
H370     H      0.321980000000     0.737570000000     0.767810000000     0.0272277  
H371     H      0.381060000000     0.797550000000     0.718180000000     0.0282066  
H372     H      0.355820000000     0.832350000000     0.748690000000     0.0512387  
H373     H      0.343400000000     0.804700000000     0.829290000000     0.0513944  
H374     H      0.318380000000     0.835870000000     0.862950000000     0.0275541  
H375     H      0.253010000000     0.882040000000     0.802650000000     0.0287049  
H376     H      0.278610000000     0.851050000000     0.768320000000     0.0508717  
H377     H      0.590050000000     0.770820000000     0.553210000000     0.0516385  
H378     H      0.564470000000     0.737020000000     0.584040000000     0.0272794  
H379     H      0.502640000000     0.797450000000     0.631850000000     0.0281327  
H380     H      0.528750000000     0.831910000000     0.601190000000     0.0506907  
H381     H      0.545130000000     0.802610000000     0.521240000000     0.0516558  
H382     H      0.570470000000     0.833460000000     0.487370000000     0.0272572  
H383     H      0.631820000000     0.881570000000     0.547750000000     0.0281373  
H384     H      0.605940000000     0.850890000000     0.582270000000     0.0506907  
H385     H      0.691790000000     0.367010000000     0.387770000000     0.207249   
H386     H      0.788000000000     0.925330000000     0.965760000000     0.201442   
H387     H      0.191670000000     0.983430000000     0.387790000000     0.207319   
H388     H      0.095920000000     0.925210000000     0.965970000000     0.203503   
H389     H      0.846190000000     0.400220000000     0.934840000000     0.1248     
H390     H      0.853050000000     0.952390000000     0.419230000000     0.191678   
H391     H      0.730710000000     0.017520000000     0.935130000000     0.141091   
H392     H      0.151100000000     0.021420000000     0.417230000000     0.190168   
H393     H      0.037330000000     0.950710000000     0.416000000000     0.134272   
H394     H      0.030970000000     0.398160000000     0.932790000000     0.186809   
H395     H      0.152760000000     0.333050000000     0.935930000000     0.142563   
H396     H      0.731660000000     0.329260000000     0.416760000000     0.190613   
H397     H      0.100790000000     0.021580000000     0.430200000000     0.203949   
H398     H      0.034280000000     0.366940000000     0.920670000000     0.205963   
H399     H      0.781310000000     0.328700000000     0.930640000000     0.203407   
H400     H      0.849230000000     0.982920000000     0.432950000000     0.204837   
H401     H      0.942170000000     0.137610000000     0.117160000000     0.207164   
H402     H      0.845920000000     0.215750000000     0.175260000000     0.198641   
H403     H      0.941510000000     0.137630000000     0.233610000000     0.207208   
H404     H      0.037980000000     0.215630000000     0.175620000000     0.203617   
H405     H      0.788040000000     0.188410000000     0.147470000000     0.124908   
H406     H      0.780800000000     0.181750000000     0.201640000000     0.186708   
H407     H      0.902480000000     0.185140000000     0.267590000000     0.141972   
H408     H      0.981850000000     0.166850000000     0.271690000000     0.190049   
H409     H      0.096220000000     0.166090000000     0.201020000000     0.133899   
H410     H      0.102950000000     0.182860000000     0.148510000000     0.186819   
H411     H      0.981670000000     0.185780000000     0.083300000000     0.143053   
H412     H      0.902800000000     0.166520000000     0.079330000000     0.19076    
H413     H      0.031960000000     0.180110000000     0.272050000000     0.203819   
H414     H      0.099880000000     0.169710000000     0.117690000000     0.206205   
H415     H      0.853440000000     0.180770000000     0.078570000000     0.203789   
H416     H      0.783870000000     0.171030000000     0.233390000000     0.206127   
H417     H      0.777970000000     0.998710000000     0.082420000000     0.05097    
H418     H      0.752770000000     0.968160000000     0.047650000000     0.0284728  
H419     H      0.811430000000     0.017870000000     0.987570000000     0.023274   
H420     H      0.836080000000     0.048660000000     0.021740000000     0.0514716  
H421     H      0.854850000000     0.018340000000     0.101110000000     0.0509716  
H422     H      0.880490000000     0.052640000000     0.132110000000     0.0287999  
H423     H      0.815430000000     0.112990000000     0.085840000000     0.0278896  
H424     H      0.790340000000     0.079350000000     0.054660000000     0.0516696  
H425     H      0.839890000000     0.046890000000     0.328450000000     0.0518436  
H426     H      0.815850000000     0.015780000000     0.362520000000     0.0299019  
H427     H      0.753140000000     0.967730000000     0.302630000000     0.0290536  
H428     H      0.777800000000     0.998570000000     0.267950000000     0.0509428  
H429     H      0.854980000000     0.017990000000     0.248590000000     0.0515335  
H430     H      0.879870000000     0.052610000000     0.217760000000     0.0289883  
H431     H      0.816710000000     0.112550000000     0.265500000000     0.0276093  
H432     H      0.792420000000     0.078540000000     0.296610000000     0.0517748  
H433     H      0.778770000000     0.350970000000     0.082070000000     0.050774   
H434     H      0.752730000000     0.381660000000     0.047620000000     0.0281651  
H435     H      0.814210000000     0.333770000000     0.987120000000     0.0211224  
H436     H      0.839740000000     0.302900000000     0.020920000000     0.0514416  
H437     H      0.795020000000     0.270970000000     0.052740000000     0.0508465  
H438     H      0.820390000000     0.237140000000     0.083600000000     0.0226126  
H439     H      0.881670000000     0.297530000000     0.131730000000     0.0280265  
H440     H      0.855770000000     0.332020000000     0.101040000000     0.0507127  
H441     H      0.106230000000     0.998560000000     0.082660000000     0.0509286  
H442     H      0.131350000000     0.968040000000     0.047830000000     0.0284821  
H443     H      0.073030000000     0.018000000000     0.987820000000     0.0217825  
H444     H      0.048490000000     0.048770000000     0.022060000000     0.0516413  
H445     H      0.094510000000     0.079260000000     0.055220000000     0.0518773  
H446     H      0.069320000000     0.112880000000     0.086400000000     0.0271681  
H447     H      0.003230000000     0.052590000000     0.132180000000     0.0286865  
H448     H      0.029020000000     0.018300000000     0.101210000000     0.0509311  
H449     H      0.027730000000     0.332320000000     0.248830000000     0.0512836  
H450     H      0.002610000000     0.297510000000     0.218290000000     0.0282277  
H451     H      0.060670000000     0.237490000000     0.268340000000     0.0236334  
H452     H      0.085230000000     0.271700000000     0.299120000000     0.0510111  
H453     H      0.039490000000     0.304820000000     0.329610000000     0.05164    
H454     H      0.064650000000     0.336020000000     0.363210000000     0.0271287  
H455     H      0.130340000000     0.381900000000     0.302830000000     0.0286475  
H456     H      0.104610000000     0.350900000000     0.268560000000     0.0508441  
H457     H      0.042800000000     0.046640000000     0.328820000000     0.0506308  
H458     H      0.067060000000     0.015520000000     0.362810000000     0.026186   
H459     H      0.129740000000     0.967640000000     0.302770000000     0.0290168  
H460     H      0.104890000000     0.998500000000     0.268170000000     0.050942   
H461     H      0.089890000000     0.078430000000     0.297150000000     0.0506549  
H462     H      0.065790000000     0.112470000000     0.266040000000     0.0262141  
H463     H      0.003350000000     0.052550000000     0.217900000000     0.0289059  
H464     H      0.028040000000     0.017900000000     0.248750000000     0.0514572  
H465     H      0.797310000000     0.271770000000     0.298580000000     0.0509839  
H466     H      0.821980000000     0.237570000000     0.267820000000     0.0272406  
H467     H      0.881060000000     0.297550000000     0.218180000000     0.0282053  
H468     H      0.855820000000     0.332350000000     0.248690000000     0.0512476  
H469     H      0.843400000000     0.304700000000     0.329290000000     0.0514938  
H470     H      0.818380000000     0.335870000000     0.362950000000     0.0275883  
H471     H      0.753010000000     0.382040000000     0.302650000000     0.0287041  
H472     H      0.778610000000     0.351050000000     0.268320000000     0.0508735  
H473     H      0.090050000000     0.270820000000     0.053210000000     0.0518065  
H474     H      0.064470000000     0.237020000000     0.084040000000     0.0273728  
H475     H      0.002640000000     0.297450000000     0.131850000000     0.0281317  
H476     H      0.028750000000     0.331910000000     0.101190000000     0.0507087  
H477     H      0.045130000000     0.302610000000     0.021240000000     0.0523252  
H478     H      0.070460000000     0.333460000000     0.987370000000     0.0253382  
H479     H      0.131820000000     0.381570000000     0.047760000000     0.0282373  
H480     H      0.105940000000     0.350890000000     0.082270000000     0.050764   
H481     H      0.691790000000     0.367010000000     0.887770000000     0.207224   
H482     H      0.788000000000     0.925330000000     0.465760000000     0.20183    
H483     H      0.191670000000     0.983430000000     0.887790000000     0.207287   
H484     H      0.095920000000     0.925210000000     0.465970000000     0.203886   
H485     H      0.846190000000     0.400220000000     0.434840000000     0.12494    
H486     H      0.853050000000     0.952390000000     0.919230000000     0.191575   
H487     H      0.730710000000     0.017520000000     0.435130000000     0.14128    
H488     H      0.151100000000     0.021420000000     0.917230000000     0.190033   
H489     H      0.037330000000     0.950710000000     0.915990000000     0.13405    
H490     H      0.030970000000     0.398160000000     0.432790000000     0.186977   
H491     H      0.152760000000     0.333050000000     0.435930000000     0.142759   
H492     H      0.731660000000     0.329260000000     0.916760000000     0.190479   
H493     H      0.100790000000     0.021580000000     0.930200000000     0.203729   
H494     H      0.034280000000     0.366940000000     0.420670000000     0.206121   
H495     H      0.781310000000     0.328700000000     0.430640000000     0.203631   
H496     H      0.849230000000     0.982920000000     0.932950000000     0.204619   
H497     H      0.942170000000     0.137610000000     0.617160000000     0.207141   
H498     H      0.845920000000     0.215750000000     0.675260000000     0.198666   
H499     H      0.941510000000     0.137630000000     0.733610000000     0.207196   
H500     H      0.037980000000     0.215630000000     0.675620000000     0.203623   
H501     H      0.788040000000     0.188410000000     0.647470000000     0.124902   
H502     H      0.780800000000     0.181750000000     0.701640000000     0.186712   
H503     H      0.902480000000     0.185140000000     0.767590000000     0.141945   
H504     H      0.981850000000     0.166850000000     0.771690000000     0.190039   
H505     H      0.096220000000     0.166090000000     0.701020000000     0.133918   
H506     H      0.102950000000     0.182860000000     0.648510000000     0.186817   
H507     H      0.981670000000     0.185780000000     0.583290000000     0.142951   
H508     H      0.902800000000     0.166520000000     0.579330000000     0.190599   
H509     H      0.031960000000     0.180110000000     0.772050000000     0.203805   
H510     H      0.099880000000     0.169710000000     0.617690000000     0.20615    
H511     H      0.853440000000     0.180770000000     0.578570000000     0.203616   
H512     H      0.783870000000     0.171030000000     0.733390000000     0.206121   
H513     H      0.777970000000     0.998710000000     0.582420000000     0.0509062  
H514     H      0.752770000000     0.968160000000     0.547650000000     0.0283615  
H515     H      0.811430000000     0.017870000000     0.487560000000     0.0251844  
H516     H      0.836080000000     0.048660000000     0.521740000000     0.0507994  
H517     H      0.854850000000     0.018340000000     0.601110000000     0.0509536  
H518     H      0.880490000000     0.052640000000     0.632110000000     0.0287965  
H519     H      0.815430000000     0.112990000000     0.585840000000     0.0278083  
H520     H      0.790340000000     0.079350000000     0.554660000000     0.0515028  
H521     H      0.839890000000     0.046890000000     0.828450000000     0.0517939  
H522     H      0.815850000000     0.015780000000     0.862510000000     0.0298396  
H523     H      0.753140000000     0.967730000000     0.802620000000     0.0290543  
H524     H      0.777800000000     0.998570000000     0.767940000000     0.0509675  
H525     H      0.854980000000     0.017990000000     0.748590000000     0.0515468  
H526     H      0.879870000000     0.052610000000     0.717760000000     0.0289991  
H527     H      0.816710000000     0.112550000000     0.765500000000     0.0275927  
H528     H      0.792420000000     0.078540000000     0.796610000000     0.0517389  
H529     H      0.778770000000     0.350970000000     0.582070000000     0.0507058  
H530     H      0.752730000000     0.381660000000     0.547620000000     0.0280759  
H531     H      0.814210000000     0.333770000000     0.487120000000     0.0230249  
H532     H      0.839740000000     0.302900000000     0.520920000000     0.0507634  
H533     H      0.795020000000     0.270970000000     0.552740000000     0.050673   
H534     H      0.820390000000     0.237140000000     0.583600000000     0.0225298  
H535     H      0.881670000000     0.297530000000     0.631730000000     0.028023   
H536     H      0.855770000000     0.332020000000     0.601040000000     0.0506966  
H537     H      0.106230000000     0.998560000000     0.582660000000     0.0508656  
H538     H      0.131350000000     0.968040000000     0.547830000000     0.0283711  
H539     H      0.073030000000     0.018000000000     0.487820000000     0.02368    
H540     H      0.048490000000     0.048770000000     0.522060000000     0.0509693  
H541     H      0.094510000000     0.079260000000     0.555220000000     0.0517048  
H542     H      0.069320000000     0.112880000000     0.586400000000     0.0271005  
H543     H      0.003230000000     0.052590000000     0.632180000000     0.0286772  
H544     H      0.029020000000     0.018300000000     0.601210000000     0.0509169  
H545     H      0.027730000000     0.332320000000     0.748830000000     0.0512972  
H546     H      0.002610000000     0.297510000000     0.718290000000     0.0282362  
H547     H      0.060670000000     0.237490000000     0.768340000000     0.0236024  
H548     H      0.085230000000     0.271700000000     0.799120000000     0.0509727  
H549     H      0.039490000000     0.304820000000     0.829610000000     0.0515903  
H550     H      0.064650000000     0.336020000000     0.863210000000     0.0270596  
H551     H      0.130340000000     0.381900000000     0.802830000000     0.0286521  
H552     H      0.104610000000     0.350900000000     0.768560000000     0.0508617  
H553     H      0.042800000000     0.046640000000     0.828820000000     0.0505767  
H554     H      0.067060000000     0.015520000000     0.862810000000     0.0261243  
H555     H      0.129740000000     0.967640000000     0.802770000000     0.0290267  
H556     H      0.104890000000     0.998500000000     0.768170000000     0.0509151  
H557     H      0.089890000000     0.078430000000     0.797150000000     0.0506092  
H558     H      0.065790000000     0.112470000000     0.766040000000     0.0262316  
H559     H      0.003350000000     0.052550000000     0.717900000000     0.0289115  
H560     H      0.028040000000     0.017900000000     0.748750000000     0.051473   
H561     H      0.797310000000     0.271770000000     0.798580000000     0.0509459  
H562     H      0.821980000000     0.237570000000     0.767810000000     0.0272299  
H563     H      0.881060000000     0.297550000000     0.718180000000     0.0282156  
H564     H      0.855820000000     0.332350000000     0.748690000000     0.0512614  
H565     H      0.843400000000     0.304700000000     0.829290000000     0.0514028  
H566     H      0.818380000000     0.335870000000     0.862950000000     0.0275483  
H567     H      0.753010000000     0.382040000000     0.802650000000     0.0287196  
H568     H      0.778610000000     0.351050000000     0.768320000000     0.0508875  
H569     H      0.090050000000     0.270820000000     0.553210000000     0.0516339  
H570     H      0.064470000000     0.237020000000     0.584040000000     0.0272776  
H571     H      0.002640000000     0.297450000000     0.631850000000     0.0281231  
H572     H      0.028750000000     0.331910000000     0.601190000000     0.0506948  
H573     H      0.045130000000     0.302610000000     0.521240000000     0.0516491  
H574     H      0.070460000000     0.333460000000     0.487370000000     0.0272474  
H575     H      0.131820000000     0.381570000000     0.547750000000     0.0281477  
H576     H      0.105940000000     0.350890000000     0.582270000000     0.0507002  
H577     H      0.691790000000     0.867010000000     0.387770000000     0.20725    
H578     H      0.788000000000     0.425330000000     0.965760000000     0.201454   
H579     H      0.191670000000     0.483430000000     0.387790000000     0.207399   
H580     H      0.095920000000     0.425210000000     0.965970000000     0.203512   
H581     H      0.846190000000     0.900220000000     0.934840000000     0.124792   
H582     H      0.853050000000     0.452390000000     0.419230000000     0.191711   
H583     H      0.730710000000     0.517510000000     0.935130000000     0.141064   
H584     H      0.151100000000     0.521420000000     0.417230000000     0.190126   
H585     H      0.037330000000     0.450710000000     0.416000000000     0.134279   
H586     H      0.030970000000     0.898170000000     0.932790000000     0.186576   
H587     H      0.152760000000     0.833050000000     0.935930000000     0.142565   
H588     H      0.731660000000     0.829260000000     0.416760000000     0.190617   
H589     H      0.100790000000     0.521580000000     0.430200000000     0.20391    
H590     H      0.034280000000     0.866940000000     0.920670000000     0.205898   
H591     H      0.781310000000     0.828700000000     0.930640000000     0.203409   
H592     H      0.849230000000     0.482920000000     0.432950000000     0.204939   
H593     H      0.942170000000     0.637610000000     0.117160000000     0.207164   
H594     H      0.845920000000     0.715750000000     0.175260000000     0.198641   
H595     H      0.941510000000     0.637630000000     0.233610000000     0.207208   
H596     H      0.037980000000     0.715630000000     0.175620000000     0.203617   
H597     H      0.788040000000     0.688410000000     0.147470000000     0.124909   
H598     H      0.780800000000     0.681750000000     0.201640000000     0.186708   
H599     H      0.902480000000     0.685140000000     0.267590000000     0.141973   
H600     H      0.981850000000     0.666850000000     0.271690000000     0.190049   
H601     H      0.096220000000     0.666090000000     0.201020000000     0.133897   
H602     H      0.102950000000     0.682860000000     0.148510000000     0.186819   
H603     H      0.981670000000     0.685780000000     0.083300000000     0.143054   
H604     H      0.902800000000     0.666520000000     0.079330000000     0.19076    
H605     H      0.031960000000     0.680110000000     0.272050000000     0.20382    
H606     H      0.099880000000     0.669710000000     0.117690000000     0.206204   
H607     H      0.853440000000     0.680770000000     0.078570000000     0.20379    
H608     H      0.783870000000     0.671030000000     0.233390000000     0.206126   
H609     H      0.777970000000     0.498710000000     0.082420000000     0.0514469  
H610     H      0.752770000000     0.468160000000     0.047650000000     0.0283588  
H611     H      0.811430000000     0.517870000000     0.987570000000     0.0232324  
H612     H      0.836080000000     0.548660000000     0.021740000000     0.0514771  
H613     H      0.854850000000     0.518340000000     0.101110000000     0.0508898  
H614     H      0.880490000000     0.552640000000     0.132110000000     0.0287836  
H615     H      0.815430000000     0.612990000000     0.085840000000     0.0278946  
H616     H      0.790340000000     0.579350000000     0.054660000000     0.0516376  
H617     H      0.839890000000     0.546890000000     0.328450000000     0.0518474  
H618     H      0.815850000000     0.515780000000     0.362520000000     0.0298644  
H619     H      0.753140000000     0.467730000000     0.302630000000     0.0289399  
H620     H      0.777800000000     0.498570000000     0.267950000000     0.0514208  
H621     H      0.854980000000     0.517990000000     0.248590000000     0.0514522  
H622     H      0.879870000000     0.552610000000     0.217760000000     0.0289723  
H623     H      0.816710000000     0.612550000000     0.265500000000     0.0276142  
H624     H      0.792420000000     0.578540000000     0.296610000000     0.0517419  
H625     H      0.778770000000     0.850970000000     0.082070000000     0.0507637  
H626     H      0.752730000000     0.881660000000     0.047620000000     0.0281532  
H627     H      0.814210000000     0.833770000000     0.987120000000     0.0211229  
H628     H      0.839740000000     0.802900000000     0.020920000000     0.0514434  
H629     H      0.795020000000     0.770970000000     0.052740000000     0.0508488  
H630     H      0.820390000000     0.737140000000     0.083600000000     0.0226141  
H631     H      0.881670000000     0.797530000000     0.131730000000     0.0280221  
H632     H      0.855770000000     0.832020000000     0.101040000000     0.050701   
H633     H      0.106230000000     0.498560000000     0.082660000000     0.0514047  
H634     H      0.131350000000     0.468040000000     0.047830000000     0.0283682  
H635     H      0.073030000000     0.518000000000     0.987820000000     0.0217448  
H636     H      0.048490000000     0.548770000000     0.022060000000     0.051647   
H637     H      0.094510000000     0.579260000000     0.055220000000     0.0518453  
H638     H      0.069320000000     0.612880000000     0.086400000000     0.0271732  
H639     H      0.003230000000     0.552590000000     0.132180000000     0.0286702  
H640     H      0.029020000000     0.518300000000     0.101210000000     0.0508495  
H641     H      0.027730000000     0.832320000000     0.248830000000     0.0512714  
H642     H      0.002610000000     0.797510000000     0.218290000000     0.0282233  
H643     H      0.060670000000     0.737490000000     0.268340000000     0.0236349  
H644     H      0.085230000000     0.771700000000     0.299120000000     0.0510132  
H645     H      0.039490000000     0.804820000000     0.329610000000     0.0516416  
H646     H      0.064650000000     0.836020000000     0.363210000000     0.0271298  
H647     H      0.130340000000     0.881910000000     0.302830000000     0.0286441  
H648     H      0.104610000000     0.850900000000     0.268560000000     0.0508341  
H649     H      0.042800000000     0.546640000000     0.328820000000     0.0506354  
H650     H      0.067060000000     0.515520000000     0.362810000000     0.0261504  
H651     H      0.129740000000     0.467640000000     0.302770000000     0.0289036  
H652     H      0.104890000000     0.498500000000     0.268170000000     0.0514206  
H653     H      0.089890000000     0.578430000000     0.297150000000     0.0506198  
H654     H      0.065790000000     0.612470000000     0.266040000000     0.0262211  
H655     H      0.003350000000     0.552550000000     0.217900000000     0.028911   
H656     H      0.028040000000     0.517900000000     0.248750000000     0.0513695  
H657     H      0.797310000000     0.771770000000     0.298580000000     0.0509861  
H658     H      0.821980000000     0.737570000000     0.267820000000     0.0272421  
H659     H      0.881060000000     0.797550000000     0.218180000000     0.0282009  
H660     H      0.855820000000     0.832350000000     0.248690000000     0.0512355  
H661     H      0.843400000000     0.804700000000     0.329290000000     0.0514951  
H662     H      0.818380000000     0.835870000000     0.362950000000     0.027589   
H663     H      0.753010000000     0.882040000000     0.302650000000     0.0286916  
H664     H      0.778610000000     0.851050000000     0.268320000000     0.0508631  
H665     H      0.090050000000     0.770820000000     0.053210000000     0.0518088  
H666     H      0.064470000000     0.737020000000     0.084040000000     0.0273744  
H667     H      0.002640000000     0.797450000000     0.131850000000     0.0281273  
H668     H      0.028750000000     0.831910000000     0.101190000000     0.0506971  
H669     H      0.045130000000     0.802610000000     0.021240000000     0.0523272  
H670     H      0.070460000000     0.833460000000     0.987370000000     0.0253396  
H671     H      0.131820000000     0.881570000000     0.047760000000     0.0282255  
H672     H      0.105940000000     0.850890000000     0.082270000000     0.0507538  
H673     H      0.691790000000     0.867010000000     0.887770000000     0.207225   
H674     H      0.788000000000     0.425330000000     0.465760000000     0.201842   
H675     H      0.191670000000     0.483430000000     0.887790000000     0.207367   
H676     H      0.095920000000     0.425210000000     0.465970000000     0.203895   
H677     H      0.846190000000     0.900220000000     0.434840000000     0.124932   
H678     H      0.853050000000     0.452390000000     0.919230000000     0.191609   
H679     H      0.730710000000     0.517510000000     0.435130000000     0.141254   
H680     H      0.151100000000     0.521420000000     0.917230000000     0.18999    
H681     H      0.037330000000     0.450710000000     0.915990000000     0.134057   
H682     H      0.030970000000     0.898170000000     0.432790000000     0.186744   
H683     H      0.152760000000     0.833050000000     0.435930000000     0.142762   
H684     H      0.731660000000     0.829260000000     0.916760000000     0.190482   
H685     H      0.100790000000     0.521580000000     0.930200000000     0.203689   
H686     H      0.034280000000     0.866940000000     0.420670000000     0.206056   
H687     H      0.781310000000     0.828700000000     0.430640000000     0.203634   
H688     H      0.849230000000     0.482920000000     0.932950000000     0.20472    
H689     H      0.942170000000     0.637610000000     0.617160000000     0.207141   
H690     H      0.845920000000     0.715750000000     0.675260000000     0.198667   
H691     H      0.941510000000     0.637630000000     0.733610000000     0.207197   
H692     H      0.037980000000     0.715630000000     0.675620000000     0.203624   
H693     H      0.788040000000     0.688410000000     0.647470000000     0.124903   
H694     H      0.780800000000     0.681750000000     0.701640000000     0.186711   
H695     H      0.902480000000     0.685140000000     0.767590000000     0.141946   
H696     H      0.981850000000     0.666850000000     0.771690000000     0.190039   
H697     H      0.096220000000     0.666090000000     0.701020000000     0.133916   
H698     H      0.102950000000     0.682860000000     0.648510000000     0.186817   
H699     H      0.981670000000     0.685780000000     0.583290000000     0.142952   
H700     H      0.902800000000     0.666520000000     0.579330000000     0.190599   
H701     H      0.031960000000     0.680110000000     0.772050000000     0.203806   
H702     H      0.099880000000     0.669710000000     0.617690000000     0.206149   
H703     H      0.853440000000     0.680770000000     0.578570000000     0.203617   
H704     H      0.783870000000     0.671030000000     0.733390000000     0.20612    
H705     H      0.777970000000     0.498710000000     0.582420000000     0.0513856  
H706     H      0.752770000000     0.468160000000     0.547650000000     0.0282469  
H707     H      0.811430000000     0.517870000000     0.487560000000     0.0251476  
H708     H      0.836080000000     0.548660000000     0.521740000000     0.0508036  
H709     H      0.854850000000     0.518340000000     0.601110000000     0.0508713  
H710     H      0.880490000000     0.552640000000     0.632110000000     0.0287801  
H711     H      0.815430000000     0.612990000000     0.585840000000     0.0278133  
H712     H      0.790340000000     0.579350000000     0.554660000000     0.0514704  
H713     H      0.839890000000     0.546890000000     0.828450000000     0.0517977  
H714     H      0.815850000000     0.515780000000     0.862510000000     0.0298019  
H715     H      0.753140000000     0.467730000000     0.802620000000     0.0289405  
H716     H      0.777800000000     0.498570000000     0.767940000000     0.0514471  
H717     H      0.854980000000     0.517990000000     0.748590000000     0.0514651  
H718     H      0.879870000000     0.552610000000     0.717760000000     0.0289829  
H719     H      0.816710000000     0.612550000000     0.765500000000     0.0275975  
H720     H      0.792420000000     0.578540000000     0.796610000000     0.0517058  
H721     H      0.778770000000     0.850970000000     0.582070000000     0.0506954  
H722     H      0.752730000000     0.881660000000     0.547620000000     0.0280639  
H723     H      0.814210000000     0.833770000000     0.487120000000     0.0230261  
H724     H      0.839740000000     0.802900000000     0.520920000000     0.0507649  
H725     H      0.795020000000     0.770970000000     0.552740000000     0.0506752  
H726     H      0.820390000000     0.737140000000     0.583600000000     0.0225313  
H727     H      0.881670000000     0.797530000000     0.631730000000     0.0280186  
H728     H      0.855770000000     0.832020000000     0.601040000000     0.0506848  
H729     H      0.106230000000     0.498560000000     0.582660000000     0.0513442  
H730     H      0.131350000000     0.468040000000     0.547830000000     0.0282566  
H731     H      0.073030000000     0.518000000000     0.487820000000     0.0236471  
H732     H      0.048490000000     0.548770000000     0.522060000000     0.0509737  
H733     H      0.094510000000     0.579260000000     0.555220000000     0.0516724  
H734     H      0.069320000000     0.612880000000     0.586400000000     0.0271055  
H735     H      0.003230000000     0.552590000000     0.632180000000     0.0286608  
H736     H      0.029020000000     0.518300000000     0.601210000000     0.0508348  
H737     H      0.027730000000     0.832320000000     0.748830000000     0.0512849  
H738     H      0.002610000000     0.797510000000     0.718290000000     0.0282318  
H739     H      0.060670000000     0.737490000000     0.768340000000     0.0236039  
H740     H      0.085230000000     0.771700000000     0.799120000000     0.0509748  
H741     H      0.039490000000     0.804820000000     0.829610000000     0.0515918  
H742     H      0.064650000000     0.836020000000     0.863210000000     0.0270606  
H743     H      0.130340000000     0.881910000000     0.802830000000     0.0286486  
H744     H      0.104610000000     0.850900000000     0.768560000000     0.0508517  
H745     H      0.042800000000     0.546640000000     0.828820000000     0.0505812  
H746     H      0.067060000000     0.515520000000     0.862810000000     0.0260884  
H747     H      0.129740000000     0.467640000000     0.802770000000     0.0289129  
H748     H      0.104890000000     0.498500000000     0.768170000000     0.0513951  
H749     H      0.089890000000     0.578430000000     0.797150000000     0.0505739  
H750     H      0.065790000000     0.612470000000     0.766040000000     0.0262386  
H751     H      0.003350000000     0.552550000000     0.717900000000     0.0289166  
H752     H      0.028040000000     0.517900000000     0.748750000000     0.0513849  
H753     H      0.797310000000     0.771770000000     0.798580000000     0.050948   
H754     H      0.821980000000     0.737570000000     0.767810000000     0.0272313  
H755     H      0.881060000000     0.797550000000     0.718180000000     0.0282112  
H756     H      0.855820000000     0.832350000000     0.748690000000     0.0512492  
H757     H      0.843400000000     0.804700000000     0.829290000000     0.051404   
H758     H      0.818380000000     0.835870000000     0.862950000000     0.027549   
H759     H      0.753010000000     0.882040000000     0.802650000000     0.028707   
H760     H      0.778610000000     0.851050000000     0.768320000000     0.050877   
H761     H      0.090050000000     0.770820000000     0.553210000000     0.0516361  
H762     H      0.064470000000     0.737020000000     0.584040000000     0.0272791  
H763     H      0.002640000000     0.797450000000     0.631850000000     0.0281188  
H764     H      0.028750000000     0.831910000000     0.601190000000     0.0506831  
H765     H      0.045130000000     0.802610000000     0.521240000000     0.0516508  
H766     H      0.070460000000     0.833460000000     0.487370000000     0.0272495  
H767     H      0.131820000000     0.881570000000     0.547750000000     0.0281358  
H768     H      0.105940000000     0.850890000000     0.582270000000     0.0506898  
N1       N      0.279560000000     0.990850000000     0.014910000000    -0.187765   
N2       N      0.350680000000     0.085500000000     0.111100000000    -0.187682   
N3       N      0.281870000000     0.989620000000     0.335290000000    -0.187568   
N4       N      0.350960000000     0.085290000000     0.239520000000    -0.187723   
N5       N      0.280820000000     0.359860000000     0.014700000000    -0.187756   
N6       N      0.353660000000     0.264650000000     0.109820000000    -0.188852   
N7       N      0.604700000000     0.990850000000     0.015120000000    -0.187415   
N8       N      0.533510000000     0.085430000000     0.111390000000    -0.187915   
N9       N      0.529120000000     0.264800000000     0.241150000000    -0.188384   
N10      N      0.600260000000     0.361070000000     0.335710000000    -0.187975   
N11      N      0.601040000000     0.989450000000     0.335500000000    -0.188075   
N12      N      0.531960000000     0.085220000000     0.239840000000    -0.18797    
N13      N      0.354070000000     0.264860000000     0.240840000000    -0.188181   
N14      N      0.282980000000     0.361080000000     0.335490000000    -0.187683   
N15      N      0.530900000000     0.264560000000     0.110090000000    -0.188298   
N16      N      0.603750000000     0.359670000000     0.014880000000    -0.187437   
N17      N      0.279560000000     0.990850000000     0.514910000000    -0.188724   
N18      N      0.350680000000     0.085500000000     0.611100000000    -0.18769    
N19      N      0.281870000000     0.989620000000     0.835280000000    -0.187494   
N20      N      0.350960000000     0.085290000000     0.739520000000    -0.187721   
N21      N      0.280820000000     0.359860000000     0.514700000000    -0.188674   
N22      N      0.353660000000     0.264650000000     0.609820000000    -0.188859   
N23      N      0.604700000000     0.990850000000     0.515120000000    -0.188373   
N24      N      0.533510000000     0.085430000000     0.611400000000    -0.187962   
N25      N      0.529120000000     0.264800000000     0.741150000000    -0.188405   
N26      N      0.600260000000     0.361070000000     0.835710000000    -0.188065   
N27      N      0.601040000000     0.989450000000     0.835500000000    -0.188114   
N28      N      0.531960000000     0.085220000000     0.739830000000    -0.187978   
N29      N      0.354070000000     0.264860000000     0.740840000000    -0.188178   
N30      N      0.282980000000     0.361080000000     0.835490000000    -0.18765    
N31      N      0.530900000000     0.264560000000     0.610090000000    -0.188354   
N32      N      0.603750000000     0.359670000000     0.514880000000    -0.188364   
N33      N      0.279560000000     0.490850000000     0.014910000000    -0.187687   
N34      N      0.350680000000     0.585500000000     0.111100000000    -0.187673   
N35      N      0.281870000000     0.489620000000     0.335290000000    -0.187488   
N36      N      0.350960000000     0.585290000000     0.239520000000    -0.187714   
N37      N      0.280820000000     0.859860000000     0.014700000000    -0.187757   
N38      N      0.353660000000     0.764650000000     0.109820000000    -0.188852   
N39      N      0.604700000000     0.490850000000     0.015120000000    -0.187336   
N40      N      0.533510000000     0.585430000000     0.111390000000    -0.187906   
N41      N      0.529120000000     0.764800000000     0.241150000000    -0.188384   
N42      N      0.600260000000     0.861070000000     0.335710000000    -0.187978   
N43      N      0.601040000000     0.489450000000     0.335500000000    -0.187995   
N44      N      0.531960000000     0.585220000000     0.239840000000    -0.187925   
N45      N      0.354070000000     0.764860000000     0.240840000000    -0.188181   
N46      N      0.282980000000     0.861080000000     0.335490000000    -0.187684   
N47      N      0.530900000000     0.764560000000     0.110090000000    -0.188297   
N48      N      0.603750000000     0.859670000000     0.014880000000    -0.187438   
N49      N      0.279560000000     0.490850000000     0.514910000000    -0.188645   
N50      N      0.350680000000     0.585500000000     0.611100000000    -0.187681   
N51      N      0.281870000000     0.489620000000     0.835280000000    -0.187414   
N52      N      0.350960000000     0.585290000000     0.739520000000    -0.187712   
N53      N      0.280820000000     0.859860000000     0.514700000000    -0.188675   
N54      N      0.353660000000     0.764650000000     0.609820000000    -0.188859   
N55      N      0.604700000000     0.490850000000     0.515120000000    -0.188293   
N56      N      0.533510000000     0.585430000000     0.611400000000    -0.187953   
N57      N      0.529120000000     0.764800000000     0.741150000000    -0.188405   
N58      N      0.600260000000     0.861070000000     0.835710000000    -0.188068   
N59      N      0.601040000000     0.489450000000     0.835500000000    -0.188034   
N60      N      0.531960000000     0.585220000000     0.739830000000    -0.187934   
N61      N      0.354070000000     0.764860000000     0.740840000000    -0.188177   
N62      N      0.282980000000     0.861080000000     0.835490000000    -0.187651   
N63      N      0.530900000000     0.764560000000     0.610090000000    -0.188354   
N64      N      0.603750000000     0.859670000000     0.514880000000    -0.188365   
N65      N      0.779560000000     0.990850000000     0.014910000000    -0.187764   
N66      N      0.850680000000     0.085500000000     0.111100000000    -0.187699   
N67      N      0.781880000000     0.989620000000     0.335290000000    -0.187541   
N68      N      0.850960000000     0.085290000000     0.239520000000    -0.187721   
N69      N      0.780820000000     0.359860000000     0.014700000000    -0.187773   
N70      N      0.853650000000     0.264650000000     0.109820000000    -0.188855   
N71      N      0.104700000000     0.990850000000     0.015120000000    -0.187417   
N72      N      0.033510000000     0.085430000000     0.111390000000    -0.187908   
N73      N      0.029120000000     0.264800000000     0.241150000000    -0.188365   
N74      N      0.100260000000     0.361070000000     0.335710000000    -0.187983   
N75      N      0.101040000000     0.989450000000     0.335500000000    -0.188065   
N76      N      0.031960000000     0.085220000000     0.239840000000    -0.187963   
N77      N      0.854070000000     0.264860000000     0.240840000000    -0.188178   
N78      N      0.782990000000     0.361080000000     0.335490000000    -0.187676   
N79      N      0.030900000000     0.264560000000     0.110090000000    -0.188292   
N80      N      0.103750000000     0.359670000000     0.014880000000    -0.187455   
N81      N      0.779560000000     0.990850000000     0.514910000000    -0.188723   
N82      N      0.850680000000     0.085500000000     0.611100000000    -0.187707   
N83      N      0.781880000000     0.989620000000     0.835280000000    -0.187468   
N84      N      0.850960000000     0.085290000000     0.739520000000    -0.187719   
N85      N      0.780820000000     0.359860000000     0.514700000000    -0.188691   
N86      N      0.853650000000     0.264650000000     0.609820000000    -0.188862   
N87      N      0.104700000000     0.990850000000     0.515120000000    -0.188375   
N88      N      0.033510000000     0.085430000000     0.611400000000    -0.187955   
N89      N      0.029120000000     0.264800000000     0.741150000000    -0.188387   
N90      N      0.100260000000     0.361070000000     0.835710000000    -0.188073   
N91      N      0.101040000000     0.989450000000     0.835500000000    -0.188104   
N92      N      0.031960000000     0.085220000000     0.739830000000    -0.187972   
N93      N      0.854070000000     0.264860000000     0.740840000000    -0.188175   
N94      N      0.782990000000     0.361080000000     0.835490000000    -0.187643   
N95      N      0.030900000000     0.264560000000     0.610090000000    -0.188348   
N96      N      0.103750000000     0.359670000000     0.514880000000    -0.188382   
N97      N      0.779560000000     0.490850000000     0.014910000000    -0.187686   
N98      N      0.850680000000     0.585500000000     0.111100000000    -0.18769    
N99      N      0.781880000000     0.489620000000     0.335290000000    -0.187461   
N100     N      0.850960000000     0.585290000000     0.239520000000    -0.187712   
N101     N      0.780820000000     0.859860000000     0.014700000000    -0.187774   
N102     N      0.853650000000     0.764650000000     0.109820000000    -0.188855   
N103     N      0.104700000000     0.490850000000     0.015120000000    -0.187338   
N104     N      0.033510000000     0.585430000000     0.111390000000    -0.187899   
N105     N      0.029120000000     0.764800000000     0.241150000000    -0.188365   
N106     N      0.100260000000     0.861070000000     0.335710000000    -0.187986   
N107     N      0.101040000000     0.489450000000     0.335500000000    -0.187985   
N108     N      0.031960000000     0.585220000000     0.239840000000    -0.187919   
N109     N      0.854070000000     0.764860000000     0.240840000000    -0.188178   
N110     N      0.782990000000     0.861080000000     0.335490000000    -0.187677   
N111     N      0.030900000000     0.764560000000     0.110090000000    -0.188292   
N112     N      0.103750000000     0.859670000000     0.014880000000    -0.187456   
N113     N      0.779560000000     0.490850000000     0.514910000000    -0.188644   
N114     N      0.850680000000     0.585500000000     0.611100000000    -0.187698   
N115     N      0.781880000000     0.489620000000     0.835280000000    -0.187388   
N116     N      0.850960000000     0.585290000000     0.739520000000    -0.18771    
N117     N      0.780820000000     0.859860000000     0.514700000000    -0.188692   
N118     N      0.853650000000     0.764650000000     0.609820000000    -0.188862   
N119     N      0.104700000000     0.490850000000     0.515120000000    -0.188295   
N120     N      0.033510000000     0.585430000000     0.611400000000    -0.187946   
N121     N      0.029120000000     0.764800000000     0.741150000000    -0.188386   
N122     N      0.100260000000     0.861070000000     0.835710000000    -0.188076   
N123     N      0.101040000000     0.489450000000     0.835500000000    -0.188024   
N124     N      0.031960000000     0.585220000000     0.739830000000    -0.187927   
N125     N      0.854070000000     0.764860000000     0.740840000000    -0.188175   
N126     N      0.782990000000     0.861080000000     0.835490000000    -0.187644   
N127     N      0.030900000000     0.764560000000     0.610090000000    -0.188348   
N128     N      0.103750000000     0.859670000000     0.514880000000    -0.188383   
O1       O      0.610830000000     0.370450000000     0.970480000000    -0.361157   
O2       O      0.647390000000     0.394790000000     0.001990000000    -0.349736   
O3       O      0.275940000000     0.371940000000     0.379880000000    -0.356821   
O4       O      0.237320000000     0.395210000000     0.348450000000    -0.350754   
O5       O      0.273460000000     0.370640000000     0.970310000000    -0.361542   
O6       O      0.236900000000     0.394880000000     0.001910000000    -0.349801   
O7       O      0.607630000000     0.371870000000     0.380090000000    -0.358631   
O8       O      0.645990000000     0.395190000000     0.348580000000    -0.351069   
O9       O      0.628250000000     0.338120000000     0.924050000000    -0.336323   
O10      O      0.548300000000     0.383300000000     0.426420000000    -0.517552   
O11      O      0.256450000000     0.338670000000     0.924120000000    -0.507132   
O12      O      0.336380000000     0.383570000000     0.425870000000    -0.33553    
O13      O      0.692010000000     0.382580000000     0.951660000000    -0.466782   
O14      O      0.691830000000     0.382760000000     0.399030000000    -0.612819   
O15      O      0.608000000000     0.978750000000     0.379980000000    -0.360264   
O16      O      0.646060000000     0.955110000000     0.348560000000    -0.351618   
O17      O      0.272540000000     0.980240000000     0.970410000000    -0.362786   
O18      O      0.236640000000     0.955510000000     0.001920000000    -0.350371   
O19      O      0.275180000000     0.978940000000     0.379790000000    -0.355041   
O20      O      0.237120000000     0.955190000000     0.348460000000    -0.351041   
O21      O      0.611450000000     0.980200000000     0.970610000000    -0.356441   
O22      O      0.647500000000     0.955470000000     0.002050000000    -0.349902   
O23      O      0.626170000000     0.011820000000     0.424160000000    -0.506842   
O24      O      0.547330000000     0.966410000000     0.426460000000    -0.342895   
O25      O      0.256120000000     0.012390000000     0.424010000000    -0.334298   
O26      O      0.335440000000     0.966960000000     0.425980000000    -0.520318   
O27      O      0.191730000000     0.967670000000     0.399030000000    -0.612729   
O28      O      0.191880000000     0.967820000000     0.951680000000    -0.466302   
O29      O      0.620350000000     0.425210000000     0.396190000000    -0.477369   
O30      O      0.263000000000     0.925280000000     0.953970000000    -0.623557   
O31      O      0.620870000000     0.925210000000     0.954140000000    -0.62295    
O32      O      0.263230000000     0.425280000000     0.396030000000    -0.475416   
O33      O      0.523560000000     0.220170000000     0.120840000000    -0.361651   
O34      O      0.486900000000     0.251730000000     0.145060000000    -0.352628   
O35      O      0.357910000000     0.129870000000     0.121920000000    -0.356054   
O36      O      0.396270000000     0.098400000000     0.145290000000    -0.350732   
O37      O      0.360820000000     0.220260000000     0.120590000000    -0.363808   
O38      O      0.397340000000     0.251790000000     0.144930000000    -0.353041   
O39      O      0.526260000000     0.129800000000     0.122200000000    -0.358574   
O40      O      0.487620000000     0.098360000000     0.145430000000    -0.350983   
O41      O      0.506030000000     0.173810000000     0.088420000000    -0.336063   
O42      O      0.585720000000     0.176010000000     0.133810000000    -0.517313   
O43      O      0.378050000000     0.174070000000     0.088640000000    -0.507472   
O44      O      0.297660000000     0.175880000000     0.133260000000    -0.335264   
O45      O      0.442140000000     0.201490000000     0.132730000000    -0.466761   
O46      O      0.442090000000     0.148880000000     0.132910000000    -0.61287    
O47      O      0.525200000000     0.129700000000     0.229140000000    -0.360004   
O48      O      0.487180000000     0.098350000000     0.205390000000    -0.351486   
O49      O      0.360950000000     0.220360000000     0.230220000000    -0.360543   
O50      O      0.397190000000     0.251800000000     0.205590000000    -0.353017   
O51      O      0.357920000000     0.129770000000     0.228860000000    -0.356657   
O52      O      0.396090000000     0.098390000000     0.205230000000    -0.350913   
O53      O      0.522210000000     0.220310000000     0.230530000000    -0.357103   
O54      O      0.486390000000     0.251790000000     0.205720000000    -0.352897   
O55      O      0.506780000000     0.173920000000     0.262180000000    -0.506767   
O56      O      0.586120000000     0.176050000000     0.217030000000    -0.342134   
O57      O      0.377230000000     0.173910000000     0.262420000000    -0.33558    
O58      O      0.298030000000     0.176130000000     0.216850000000    -0.516559   
O59      O      0.441610000000     0.148870000000     0.217840000000    -0.612745   
O60      O      0.441680000000     0.201520000000     0.218000000000    -0.466266   
O61      O      0.513280000000     0.145930000000     0.175560000000    -0.477389   
O62      O      0.370850000000     0.203910000000     0.175270000000    -0.623698   
O63      O      0.512970000000     0.203850000000     0.175560000000    -0.623214   
O64      O      0.370400000000     0.146000000000     0.175260000000    -0.472546   
O65      O      0.610830000000     0.370450000000     0.470480000000    -0.361696   
O66      O      0.647390000000     0.394790000000     0.502000000000    -0.352434   
O67      O      0.275940000000     0.371940000000     0.879880000000    -0.356816   
O68      O      0.237320000000     0.395210000000     0.848450000000    -0.350741   
O69      O      0.273460000000     0.370640000000     0.470310000000    -0.362091   
O70      O      0.236900000000     0.394880000000     0.501910000000    -0.352589   
O71      O      0.607630000000     0.371870000000     0.880080000000    -0.35859    
O72      O      0.645990000000     0.395190000000     0.848580000000    -0.351123   
O73      O      0.628250000000     0.338120000000     0.424050000000    -0.336196   
O74      O      0.548300000000     0.383300000000     0.926420000000    -0.517555   
O75      O      0.256450000000     0.338670000000     0.424120000000    -0.507127   
O76      O      0.336380000000     0.383570000000     0.925870000000    -0.335654   
O77      O      0.692010000000     0.382580000000     0.451660000000    -0.46679    
O78      O      0.691830000000     0.382760000000     0.899030000000    -0.612736   
O79      O      0.608000000000     0.978750000000     0.879970000000    -0.360367   
O80      O      0.646060000000     0.955110000000     0.848560000000    -0.35167    
O81      O      0.272540000000     0.980240000000     0.470410000000    -0.363342   
O82      O      0.236640000000     0.955510000000     0.501920000000    -0.353165   
O83      O      0.275180000000     0.978940000000     0.879790000000    -0.355006   
O84      O      0.237120000000     0.955190000000     0.848450000000    -0.350907   
O85      O      0.611450000000     0.980200000000     0.470610000000    -0.356996   
O86      O      0.647500000000     0.955470000000     0.502050000000    -0.3527     
O87      O      0.626170000000     0.011820000000     0.924160000000    -0.50685    
O88      O      0.547330000000     0.966410000000     0.926470000000    -0.342908   
O89      O      0.256120000000     0.012390000000     0.924010000000    -0.334417   
O90      O      0.335440000000     0.966960000000     0.925980000000    -0.520319   
O91      O      0.191730000000     0.967670000000     0.899030000000    -0.612653   
O92      O      0.191880000000     0.967820000000     0.451680000000    -0.466303   
O93      O      0.620350000000     0.425210000000     0.896190000000    -0.477299   
O94      O      0.263000000000     0.925280000000     0.453970000000    -0.623775   
O95      O      0.620870000000     0.925210000000     0.454140000000    -0.623187   
O96      O      0.263230000000     0.425280000000     0.896030000000    -0.475361   
O97      O      0.523560000000     0.220170000000     0.620840000000    -0.361678   
O98      O      0.486900000000     0.251730000000     0.645060000000    -0.352524   
O99      O      0.357910000000     0.129870000000     0.621920000000    -0.35603    
O100     O      0.396270000000     0.098400000000     0.645290000000    -0.350724   
O101     O      0.360820000000     0.220260000000     0.620590000000    -0.363783   
O102     O      0.397340000000     0.251790000000     0.644930000000    -0.353037   
O103     O      0.526260000000     0.129800000000     0.622200000000    -0.358615   
O104     O      0.487620000000     0.098360000000     0.645430000000    -0.350998   
O105     O      0.506030000000     0.173810000000     0.588420000000    -0.336139   
O106     O      0.585720000000     0.176010000000     0.633810000000    -0.5173     
O107     O      0.378050000000     0.174070000000     0.588640000000    -0.507307   
O108     O      0.297660000000     0.175880000000     0.633260000000    -0.335271   
O109     O      0.442140000000     0.201490000000     0.632720000000    -0.466656   
O110     O      0.442090000000     0.148880000000     0.632910000000    -0.612851   
O111     O      0.525200000000     0.129700000000     0.729140000000    -0.360063   
O112     O      0.487180000000     0.098350000000     0.705390000000    -0.351498   
O113     O      0.360950000000     0.220360000000     0.730220000000    -0.360542   
O114     O      0.397190000000     0.251800000000     0.705590000000    -0.353      
O115     O      0.357920000000     0.129770000000     0.728860000000    -0.356656   
O116     O      0.396090000000     0.098390000000     0.705230000000    -0.350904   
O117     O      0.522210000000     0.220310000000     0.730520000000    -0.357217   
O118     O      0.486390000000     0.251790000000     0.705720000000    -0.352897   
O119     O      0.506780000000     0.173920000000     0.762180000000    -0.506895   
O120     O      0.586120000000     0.176050000000     0.717030000000    -0.342149   
O121     O      0.377230000000     0.173910000000     0.762420000000    -0.335605   
O122     O      0.298030000000     0.176130000000     0.716850000000    -0.516553   
O123     O      0.441610000000     0.148870000000     0.717840000000    -0.61276    
O124     O      0.441680000000     0.201520000000     0.718000000000    -0.466276   
O125     O      0.513280000000     0.145930000000     0.675560000000    -0.477325   
O126     O      0.370850000000     0.203910000000     0.675270000000    -0.623766   
O127     O      0.512970000000     0.203850000000     0.675560000000    -0.623137   
O128     O      0.370400000000     0.146000000000     0.675260000000    -0.472593   
O129     O      0.610830000000     0.870450000000     0.970480000000    -0.361156   
O130     O      0.647390000000     0.894790000000     0.001990000000    -0.34974    
O131     O      0.275940000000     0.871940000000     0.379880000000    -0.356822   
O132     O      0.237320000000     0.895210000000     0.348450000000    -0.350759   
O133     O      0.273460000000     0.870640000000     0.970310000000    -0.361542   
O134     O      0.236900000000     0.894880000000     0.001910000000    -0.349805   
O135     O      0.607630000000     0.871870000000     0.380090000000    -0.358634   
O136     O      0.645990000000     0.895190000000     0.348580000000    -0.351076   
O137     O      0.628250000000     0.838120000000     0.924050000000    -0.336321   
O138     O      0.548300000000     0.883300000000     0.426420000000    -0.517293   
O139     O      0.256450000000     0.838670000000     0.924120000000    -0.507132   
O140     O      0.336380000000     0.883570000000     0.425870000000    -0.335532   
O141     O      0.692010000000     0.882580000000     0.951660000000    -0.466776   
O142     O      0.691830000000     0.882760000000     0.399030000000    -0.612814   
O143     O      0.608000000000     0.478750000000     0.379980000000    -0.360162   
O144     O      0.646060000000     0.455110000000     0.348560000000    -0.351612   
O145     O      0.272540000000     0.480240000000     0.970410000000    -0.362686   
O146     O      0.236640000000     0.455510000000     0.001920000000    -0.350366   
O147     O      0.275180000000     0.478940000000     0.379790000000    -0.35494    
O148     O      0.237120000000     0.455190000000     0.348460000000    -0.351035   
O149     O      0.611450000000     0.480200000000     0.970610000000    -0.356335   
O150     O      0.647500000000     0.455470000000     0.002050000000    -0.349896   
O151     O      0.626170000000     0.511820000000     0.424160000000    -0.507014   
O152     O      0.547330000000     0.466410000000     0.426460000000    -0.342809   
O153     O      0.256120000000     0.512390000000     0.424010000000    -0.334525   
O154     O      0.335440000000     0.466960000000     0.425980000000    -0.520319   
O155     O      0.191730000000     0.467670000000     0.399030000000    -0.612744   
O156     O      0.191880000000     0.467820000000     0.951680000000    -0.466267   
O157     O      0.620350000000     0.925210000000     0.396190000000    -0.477356   
O158     O      0.263000000000     0.425280000000     0.953970000000    -0.623577   
O159     O      0.620870000000     0.425210000000     0.954140000000    -0.622973   
O160     O      0.263230000000     0.925280000000     0.396030000000    -0.475404   
O161     O      0.523560000000     0.720170000000     0.120840000000    -0.36165    
O162     O      0.486900000000     0.751730000000     0.145060000000    -0.352629   
O163     O      0.357910000000     0.629870000000     0.121920000000    -0.356054   
O164     O      0.396270000000     0.598400000000     0.145290000000    -0.350737   
O165     O      0.360820000000     0.720260000000     0.120590000000    -0.363806   
O166     O      0.397340000000     0.751790000000     0.144930000000    -0.353041   
O167     O      0.526260000000     0.629800000000     0.122200000000    -0.358574   
O168     O      0.487620000000     0.598360000000     0.145430000000    -0.350989   
O169     O      0.506030000000     0.673810000000     0.088420000000    -0.336063   
O170     O      0.585720000000     0.676010000000     0.133810000000    -0.517313   
O171     O      0.378050000000     0.674070000000     0.088640000000    -0.507472   
O172     O      0.297660000000     0.675880000000     0.133260000000    -0.335265   
O173     O      0.442140000000     0.701490000000     0.132730000000    -0.46676    
O174     O      0.442090000000     0.648880000000     0.132910000000    -0.612869   
O175     O      0.525200000000     0.629700000000     0.229140000000    -0.360003   
O176     O      0.487180000000     0.598350000000     0.205390000000    -0.351487   
O177     O      0.360950000000     0.720360000000     0.230220000000    -0.360542   
O178     O      0.397190000000     0.751800000000     0.205590000000    -0.353017   
O179     O      0.357920000000     0.629770000000     0.228860000000    -0.356657   
O180     O      0.396090000000     0.598390000000     0.205230000000    -0.350918   
O181     O      0.522210000000     0.720310000000     0.230530000000    -0.357102   
O182     O      0.486390000000     0.751790000000     0.205720000000    -0.352897   
O183     O      0.506780000000     0.673920000000     0.262180000000    -0.506766   
O184     O      0.586120000000     0.676050000000     0.217030000000    -0.342134   
O185     O      0.377230000000     0.673910000000     0.262420000000    -0.335579   
O186     O      0.298030000000     0.676130000000     0.216850000000    -0.516559   
O187     O      0.441610000000     0.648870000000     0.217840000000    -0.612744   
O188     O      0.441680000000     0.701520000000     0.218000000000    -0.466265   
O189     O      0.513280000000     0.645930000000     0.175560000000    -0.47739    
O190     O      0.370850000000     0.703910000000     0.175270000000    -0.623698   
O191     O      0.512970000000     0.703850000000     0.175560000000    -0.623214   
O192     O      0.370400000000     0.646000000000     0.175260000000    -0.472547   
O193     O      0.610830000000     0.870450000000     0.470480000000    -0.361695   
O194     O      0.647390000000     0.894790000000     0.502000000000    -0.352439   
O195     O      0.275940000000     0.871940000000     0.879880000000    -0.356817   
O196     O      0.237320000000     0.895210000000     0.848450000000    -0.350746   
O197     O      0.273460000000     0.870640000000     0.470310000000    -0.362091   
O198     O      0.236900000000     0.894880000000     0.501910000000    -0.352594   
O199     O      0.607630000000     0.871870000000     0.880080000000    -0.358593   
O200     O      0.645990000000     0.895190000000     0.848580000000    -0.35113    
O201     O      0.628250000000     0.838120000000     0.424050000000    -0.336193   
O202     O      0.548300000000     0.883300000000     0.926420000000    -0.517296   
O203     O      0.256450000000     0.838670000000     0.424120000000    -0.507126   
O204     O      0.336380000000     0.883570000000     0.925870000000    -0.335657   
O205     O      0.692010000000     0.882580000000     0.451660000000    -0.466783   
O206     O      0.691830000000     0.882760000000     0.899030000000    -0.61273    
O207     O      0.608000000000     0.478750000000     0.879970000000    -0.360264   
O208     O      0.646060000000     0.455110000000     0.848560000000    -0.351664   
O209     O      0.272540000000     0.480240000000     0.470410000000    -0.363242   
O210     O      0.236640000000     0.455510000000     0.501920000000    -0.35316    
O211     O      0.275180000000     0.478940000000     0.879790000000    -0.354905   
O212     O      0.237120000000     0.455190000000     0.848450000000    -0.350902   
O213     O      0.611450000000     0.480200000000     0.470610000000    -0.35689    
O214     O      0.647500000000     0.455470000000     0.502050000000    -0.352694   
O215     O      0.626170000000     0.511820000000     0.924160000000    -0.507023   
O216     O      0.547330000000     0.466410000000     0.926470000000    -0.342822   
O217     O      0.256120000000     0.512390000000     0.924010000000    -0.334644   
O218     O      0.335440000000     0.466960000000     0.925980000000    -0.52032    
O219     O      0.191730000000     0.467670000000     0.899030000000    -0.612668   
O220     O      0.191880000000     0.467820000000     0.451680000000    -0.466268   
O221     O      0.620350000000     0.925210000000     0.896190000000    -0.477287   
O222     O      0.263000000000     0.425280000000     0.453970000000    -0.623795   
O223     O      0.620870000000     0.425210000000     0.454140000000    -0.62321    
O224     O      0.263230000000     0.925280000000     0.896030000000    -0.475349   
O225     O      0.523560000000     0.720170000000     0.620840000000    -0.361676   
O226     O      0.486900000000     0.751730000000     0.645060000000    -0.352524   
O227     O      0.357910000000     0.629870000000     0.621920000000    -0.35603    
O228     O      0.396270000000     0.598400000000     0.645290000000    -0.35073    
O229     O      0.360820000000     0.720260000000     0.620590000000    -0.363782   
O230     O      0.397340000000     0.751790000000     0.644930000000    -0.353037   
O231     O      0.526260000000     0.629800000000     0.622200000000    -0.358615   
O232     O      0.487620000000     0.598360000000     0.645430000000    -0.351003   
O233     O      0.506030000000     0.673810000000     0.588420000000    -0.336138   
O234     O      0.585720000000     0.676010000000     0.633810000000    -0.5173     
O235     O      0.378050000000     0.674070000000     0.588640000000    -0.507306   
O236     O      0.297660000000     0.675880000000     0.633260000000    -0.335272   
O237     O      0.442140000000     0.701490000000     0.632720000000    -0.466655   
O238     O      0.442090000000     0.648880000000     0.632910000000    -0.61285    
O239     O      0.525200000000     0.629700000000     0.729140000000    -0.360062   
O240     O      0.487180000000     0.598350000000     0.705390000000    -0.351499   
O241     O      0.360950000000     0.720360000000     0.730220000000    -0.360541   
O242     O      0.397190000000     0.751800000000     0.705590000000    -0.353001   
O243     O      0.357920000000     0.629770000000     0.728860000000    -0.356656   
O244     O      0.396090000000     0.598390000000     0.705230000000    -0.350909   
O245     O      0.522210000000     0.720310000000     0.730520000000    -0.357215   
O246     O      0.486390000000     0.751790000000     0.705720000000    -0.352897   
O247     O      0.506780000000     0.673920000000     0.762180000000    -0.506894   
O248     O      0.586120000000     0.676050000000     0.717030000000    -0.342149   
O249     O      0.377230000000     0.673910000000     0.762420000000    -0.335605   
O250     O      0.298030000000     0.676130000000     0.716850000000    -0.516553   
O251     O      0.441610000000     0.648870000000     0.717840000000    -0.612759   
O252     O      0.441680000000     0.701520000000     0.718000000000    -0.466275   
O253     O      0.513280000000     0.645930000000     0.675560000000    -0.477326   
O254     O      0.370850000000     0.703910000000     0.675270000000    -0.623766   
O255     O      0.512970000000     0.703850000000     0.675560000000    -0.623136   
O256     O      0.370400000000     0.646000000000     0.675260000000    -0.472595   
O257     O      0.110830000000     0.370450000000     0.970480000000    -0.361182   
O258     O      0.147380000000     0.394790000000     0.001990000000    -0.349781   
O259     O      0.775940000000     0.371940000000     0.379880000000    -0.356805   
O260     O      0.737320000000     0.395210000000     0.348450000000    -0.350745   
O261     O      0.773460000000     0.370640000000     0.970310000000    -0.361567   
O262     O      0.736910000000     0.394880000000     0.001910000000    -0.349839   
O263     O      0.107630000000     0.371870000000     0.380090000000    -0.358628   
O264     O      0.145990000000     0.395190000000     0.348580000000    -0.351069   
O265     O      0.128250000000     0.338120000000     0.924050000000    -0.336321   
O266     O      0.048310000000     0.383300000000     0.426420000000    -0.517402   
O267     O      0.756450000000     0.338670000000     0.924120000000    -0.507131   
O268     O      0.836380000000     0.383570000000     0.425870000000    -0.335543   
O269     O      0.192010000000     0.382580000000     0.951660000000    -0.466784   
O270     O      0.191830000000     0.382760000000     0.399030000000    -0.612822   
O271     O      0.108000000000     0.978750000000     0.379980000000    -0.36028    
O272     O      0.146060000000     0.955110000000     0.348560000000    -0.35162    
O273     O      0.772540000000     0.980240000000     0.970410000000    -0.362785   
O274     O      0.736640000000     0.955510000000     0.001920000000    -0.350368   
O275     O      0.775180000000     0.978940000000     0.379790000000    -0.355029   
O276     O      0.737120000000     0.955190000000     0.348460000000    -0.351032   
O277     O      0.111450000000     0.980200000000     0.970610000000    -0.356457   
O278     O      0.147500000000     0.955470000000     0.002050000000    -0.349908   
O279     O      0.126170000000     0.011820000000     0.424160000000    -0.506843   
O280     O      0.047330000000     0.966410000000     0.426460000000    -0.342959   
O281     O      0.756120000000     0.012390000000     0.424010000000    -0.334297   
O282     O      0.835440000000     0.966960000000     0.425980000000    -0.520317   
O283     O      0.691730000000     0.967670000000     0.399030000000    -0.612778   
O284     O      0.691880000000     0.967820000000     0.951680000000    -0.466344   
O285     O      0.120350000000     0.425210000000     0.396190000000    -0.477379   
O286     O      0.763010000000     0.925280000000     0.953970000000    -0.623645   
O287     O      0.120870000000     0.925210000000     0.954140000000    -0.62296    
O288     O      0.763230000000     0.425280000000     0.396030000000    -0.475412   
O289     O      0.023560000000     0.220170000000     0.120840000000    -0.361647   
O290     O      0.986900000000     0.251730000000     0.145060000000    -0.352589   
O291     O      0.857910000000     0.129870000000     0.121920000000    -0.356066   
O292     O      0.896270000000     0.098400000000     0.145290000000    -0.350677   
O293     O      0.860820000000     0.220260000000     0.120590000000    -0.363822   
O294     O      0.897330000000     0.251790000000     0.144930000000    -0.353079   
O295     O      0.026260000000     0.129800000000     0.122200000000    -0.358561   
O296     O      0.987620000000     0.098360000000     0.145430000000    -0.350931   
O297     O      0.006030000000     0.173810000000     0.088420000000    -0.336102   
O298     O      0.085720000000     0.176010000000     0.133810000000    -0.517318   
O299     O      0.878050000000     0.174070000000     0.088640000000    -0.507473   
O300     O      0.797660000000     0.175880000000     0.133260000000    -0.335267   
O301     O      0.942140000000     0.201490000000     0.132730000000    -0.466743   
O302     O      0.942090000000     0.148880000000     0.132910000000    -0.612853   
O303     O      0.025200000000     0.129700000000     0.229140000000    -0.359997   
O304     O      0.987180000000     0.098350000000     0.205390000000    -0.351434   
O305     O      0.860940000000     0.220360000000     0.230220000000    -0.36051    
O306     O      0.897190000000     0.251800000000     0.205590000000    -0.353006   
O307     O      0.857920000000     0.129770000000     0.228860000000    -0.356656   
O308     O      0.896090000000     0.098390000000     0.205230000000    -0.350914   
O309     O      0.022210000000     0.220310000000     0.230530000000    -0.357096   
O310     O      0.986390000000     0.251790000000     0.205720000000    -0.35285    
O311     O      0.006780000000     0.173920000000     0.262180000000    -0.506819   
O312     O      0.086120000000     0.176050000000     0.217030000000    -0.342131   
O313     O      0.877240000000     0.173910000000     0.262420000000    -0.335671   
O314     O      0.798030000000     0.176130000000     0.216850000000    -0.516559   
O315     O      0.941610000000     0.148870000000     0.217840000000    -0.612727   
O316     O      0.941680000000     0.201520000000     0.218000000000    -0.466251   
O317     O      0.013280000000     0.145930000000     0.175560000000    -0.477403   
O318     O      0.870860000000     0.203910000000     0.175270000000    -0.623613   
O319     O      0.012970000000     0.203850000000     0.175560000000    -0.623231   
O320     O      0.870400000000     0.146000000000     0.175260000000    -0.472552   
O321     O      0.110830000000     0.370450000000     0.470480000000    -0.361721   
O322     O      0.147380000000     0.394790000000     0.502000000000    -0.35248    
O323     O      0.775940000000     0.371940000000     0.879880000000    -0.3568     
O324     O      0.737320000000     0.395210000000     0.848450000000    -0.350732   
O325     O      0.773460000000     0.370640000000     0.470310000000    -0.362116   
O326     O      0.736910000000     0.394880000000     0.501910000000    -0.352628   
O327     O      0.107630000000     0.371870000000     0.880080000000    -0.358587   
O328     O      0.145990000000     0.395190000000     0.848580000000    -0.351123   
O329     O      0.128250000000     0.338120000000     0.424050000000    -0.336193   
O330     O      0.048310000000     0.383300000000     0.926420000000    -0.517405   
O331     O      0.756450000000     0.338670000000     0.424120000000    -0.507126   
O332     O      0.836380000000     0.383570000000     0.925870000000    -0.335668   
O333     O      0.192010000000     0.382580000000     0.451660000000    -0.466792   
O334     O      0.191830000000     0.382760000000     0.899030000000    -0.612738   
O335     O      0.108000000000     0.978750000000     0.879970000000    -0.360383   
O336     O      0.146060000000     0.955110000000     0.848560000000    -0.351671   
O337     O      0.772540000000     0.980240000000     0.470410000000    -0.363341   
O338     O      0.736640000000     0.955510000000     0.501920000000    -0.353162   
O339     O      0.775180000000     0.978940000000     0.879790000000    -0.354994   
O340     O      0.737120000000     0.955190000000     0.848450000000    -0.350899   
O341     O      0.111450000000     0.980200000000     0.470610000000    -0.357012   
O342     O      0.147500000000     0.955470000000     0.502050000000    -0.352705   
O343     O      0.126170000000     0.011820000000     0.924160000000    -0.506851   
O344     O      0.047330000000     0.966410000000     0.926470000000    -0.342971   
O345     O      0.756120000000     0.012390000000     0.924010000000    -0.334416   
O346     O      0.835440000000     0.966960000000     0.925980000000    -0.520318   
O347     O      0.691730000000     0.967670000000     0.899030000000    -0.612702   
O348     O      0.691880000000     0.967820000000     0.451680000000    -0.466345   
O349     O      0.120350000000     0.425210000000     0.896190000000    -0.47731    
O350     O      0.763010000000     0.925280000000     0.453970000000    -0.623864   
O351     O      0.120870000000     0.925210000000     0.454140000000    -0.623197   
O352     O      0.763230000000     0.425280000000     0.896030000000    -0.475357   
O353     O      0.023560000000     0.220170000000     0.620840000000    -0.361674   
O354     O      0.986900000000     0.251730000000     0.645060000000    -0.352484   
O355     O      0.857910000000     0.129870000000     0.621920000000    -0.356042   
O356     O      0.896270000000     0.098400000000     0.645290000000    -0.35067    
O357     O      0.860820000000     0.220260000000     0.620590000000    -0.363797   
O358     O      0.897330000000     0.251790000000     0.644930000000    -0.353074   
O359     O      0.026260000000     0.129800000000     0.622200000000    -0.358602   
O360     O      0.987620000000     0.098360000000     0.645430000000    -0.350945   
O361     O      0.006030000000     0.173810000000     0.588420000000    -0.336178   
O362     O      0.085720000000     0.176010000000     0.633810000000    -0.517305   
O363     O      0.878050000000     0.174070000000     0.588640000000    -0.507307   
O364     O      0.797660000000     0.175880000000     0.633260000000    -0.335274   
O365     O      0.942140000000     0.201490000000     0.632720000000    -0.466638   
O366     O      0.942090000000     0.148880000000     0.632910000000    -0.612834   
O367     O      0.025200000000     0.129700000000     0.729140000000    -0.360056   
O368     O      0.987180000000     0.098350000000     0.705390000000    -0.351446   
O369     O      0.860940000000     0.220360000000     0.730220000000    -0.360509   
O370     O      0.897190000000     0.251800000000     0.705590000000    -0.352989   
O371     O      0.857920000000     0.129770000000     0.728860000000    -0.356654   
O372     O      0.896090000000     0.098390000000     0.705230000000    -0.350905   
O373     O      0.022210000000     0.220310000000     0.730520000000    -0.35721    
O374     O      0.986390000000     0.251790000000     0.705720000000    -0.35285    
O375     O      0.006780000000     0.173920000000     0.762180000000    -0.506947   
O376     O      0.086120000000     0.176050000000     0.717030000000    -0.342146   
O377     O      0.877240000000     0.173910000000     0.762420000000    -0.335697   
O378     O      0.798030000000     0.176130000000     0.716850000000    -0.516553   
O379     O      0.941610000000     0.148870000000     0.717840000000    -0.612741   
O380     O      0.941680000000     0.201520000000     0.718000000000    -0.466261   
O381     O      0.013280000000     0.145930000000     0.675560000000    -0.47734    
O382     O      0.870860000000     0.203910000000     0.675270000000    -0.623681   
O383     O      0.012970000000     0.203850000000     0.675560000000    -0.623154   
O384     O      0.870400000000     0.146000000000     0.675260000000    -0.472599   
O385     O      0.110830000000     0.870450000000     0.970480000000    -0.361181   
O386     O      0.147380000000     0.894790000000     0.001990000000    -0.349785   
O387     O      0.775940000000     0.871940000000     0.379880000000    -0.356806   
O388     O      0.737320000000     0.895210000000     0.348450000000    -0.35075    
O389     O      0.773460000000     0.870640000000     0.970310000000    -0.361567   
O390     O      0.736910000000     0.894880000000     0.001910000000    -0.349843   
O391     O      0.107630000000     0.871870000000     0.380090000000    -0.35863    
O392     O      0.145990000000     0.895190000000     0.348580000000    -0.351076   
O393     O      0.128250000000     0.838120000000     0.924050000000    -0.336319   
O394     O      0.048310000000     0.883300000000     0.426420000000    -0.517142   
O395     O      0.756450000000     0.838670000000     0.924120000000    -0.507131   
O396     O      0.836380000000     0.883570000000     0.425870000000    -0.335546   
O397     O      0.192010000000     0.882580000000     0.951660000000    -0.466778   
O398     O      0.191830000000     0.882760000000     0.399030000000    -0.612816   
O399     O      0.108000000000     0.478750000000     0.379980000000    -0.360178   
O400     O      0.146060000000     0.455110000000     0.348560000000    -0.351614   
O401     O      0.772540000000     0.480240000000     0.970410000000    -0.362684   
O402     O      0.736640000000     0.455510000000     0.001920000000    -0.350363   
O403     O      0.775180000000     0.478940000000     0.379790000000    -0.354929   
O404     O      0.737120000000     0.455190000000     0.348460000000    -0.351027   
O405     O      0.111450000000     0.480200000000     0.970610000000    -0.356351   
O406     O      0.147500000000     0.455470000000     0.002050000000    -0.349902   
O407     O      0.126170000000     0.511820000000     0.424160000000    -0.507016   
O408     O      0.047330000000     0.466410000000     0.426460000000    -0.342873   
O409     O      0.756120000000     0.512390000000     0.424010000000    -0.334524   
O410     O      0.835440000000     0.466960000000     0.425980000000    -0.520317   
O411     O      0.691730000000     0.467670000000     0.399030000000    -0.612794   
O412     O      0.691880000000     0.467820000000     0.951680000000    -0.46631    
O413     O      0.120350000000     0.925210000000     0.396190000000    -0.477366   
O414     O      0.763010000000     0.425280000000     0.953970000000    -0.623666   
O415     O      0.120870000000     0.425210000000     0.954140000000    -0.622982   
O416     O      0.763230000000     0.925280000000     0.396030000000    -0.4754     
O417     O      0.023560000000     0.720170000000     0.120840000000    -0.361646   
O418     O      0.986900000000     0.751730000000     0.145060000000    -0.352589   
O419     O      0.857910000000     0.629870000000     0.121920000000    -0.356066   
O420     O      0.896270000000     0.598400000000     0.145290000000    -0.350683   
O421     O      0.860820000000     0.720260000000     0.120590000000    -0.363821   
O422     O      0.897330000000     0.751790000000     0.144930000000    -0.353079   
O423     O      0.026260000000     0.629800000000     0.122200000000    -0.358561   
O424     O      0.987620000000     0.598360000000     0.145430000000    -0.350936   
O425     O      0.006030000000     0.673810000000     0.088420000000    -0.336102   
O426     O      0.085720000000     0.676010000000     0.133810000000    -0.517318   
O427     O      0.878050000000     0.674070000000     0.088640000000    -0.507472   
O428     O      0.797660000000     0.675880000000     0.133260000000    -0.335269   
O429     O      0.942140000000     0.701490000000     0.132730000000    -0.466742   
O430     O      0.942090000000     0.648880000000     0.132910000000    -0.612852   
O431     O      0.025200000000     0.629700000000     0.229140000000    -0.359996   
O432     O      0.987180000000     0.598350000000     0.205390000000    -0.351435   
O433     O      0.860940000000     0.720360000000     0.230220000000    -0.360509   
O434     O      0.897190000000     0.751800000000     0.205590000000    -0.353006   
O435     O      0.857920000000     0.629770000000     0.228860000000    -0.356656   
O436     O      0.896090000000     0.598390000000     0.205230000000    -0.350919   
O437     O      0.022210000000     0.720310000000     0.230530000000    -0.357095   
O438     O      0.986390000000     0.751790000000     0.205720000000    -0.35285    
O439     O      0.006780000000     0.673920000000     0.262180000000    -0.506818   
O440     O      0.086120000000     0.676050000000     0.217030000000    -0.34213    
O441     O      0.877240000000     0.673910000000     0.262420000000    -0.335671   
O442     O      0.798030000000     0.676130000000     0.216850000000    -0.516559   
O443     O      0.941610000000     0.648870000000     0.217840000000    -0.612726   
O444     O      0.941680000000     0.701520000000     0.218000000000    -0.46625    
O445     O      0.013280000000     0.645930000000     0.175560000000    -0.477405   
O446     O      0.870860000000     0.703910000000     0.175270000000    -0.623612   
O447     O      0.012970000000     0.703850000000     0.175560000000    -0.623231   
O448     O      0.870400000000     0.646000000000     0.175260000000    -0.472553   
O449     O      0.110830000000     0.870450000000     0.470480000000    -0.36172    
O450     O      0.147380000000     0.894790000000     0.502000000000    -0.352485   
O451     O      0.775940000000     0.871940000000     0.879880000000    -0.356801   
O452     O      0.737320000000     0.895210000000     0.848450000000    -0.350737   
O453     O      0.773460000000     0.870640000000     0.470310000000    -0.362116   
O454     O      0.736910000000     0.894880000000     0.501910000000    -0.352633   
O455     O      0.107630000000     0.871870000000     0.880080000000    -0.35859    
O456     O      0.145990000000     0.895190000000     0.848580000000    -0.35113    
O457     O      0.128250000000     0.838120000000     0.424050000000    -0.336191   
O458     O      0.048310000000     0.883300000000     0.926420000000    -0.517145   
O459     O      0.756450000000     0.838670000000     0.424120000000    -0.507125   
O460     O      0.836380000000     0.883570000000     0.925870000000    -0.33567    
O461     O      0.192010000000     0.882580000000     0.451660000000    -0.466785   
O462     O      0.191830000000     0.882760000000     0.899030000000    -0.612732   
O463     O      0.108000000000     0.478750000000     0.879970000000    -0.360281   
O464     O      0.146060000000     0.455110000000     0.848560000000    -0.351666   
O465     O      0.772540000000     0.480240000000     0.470410000000    -0.363241   
O466     O      0.736640000000     0.455510000000     0.501920000000    -0.353157   
O467     O      0.775180000000     0.478940000000     0.879790000000    -0.354893   
O468     O      0.737120000000     0.455190000000     0.848450000000    -0.350893   
O469     O      0.111450000000     0.480200000000     0.470610000000    -0.356906   
O470     O      0.147500000000     0.455470000000     0.502050000000    -0.352699   
O471     O      0.126170000000     0.511820000000     0.924160000000    -0.507025   
O472     O      0.047330000000     0.466410000000     0.926470000000    -0.342885   
O473     O      0.756120000000     0.512390000000     0.924010000000    -0.334643   
O474     O      0.835440000000     0.466960000000     0.925980000000    -0.520318   
O475     O      0.691730000000     0.467670000000     0.899030000000    -0.612718   
O476     O      0.691880000000     0.467820000000     0.451680000000    -0.466311   
O477     O      0.120350000000     0.925210000000     0.896190000000    -0.477297   
O478     O      0.763010000000     0.425280000000     0.453970000000    -0.623884   
O479     O      0.120870000000     0.425210000000     0.454140000000    -0.623219   
O480     O      0.763230000000     0.925280000000     0.896030000000    -0.475345   
O481     O      0.023560000000     0.720170000000     0.620840000000    -0.361673   
O482     O      0.986900000000     0.751730000000     0.645060000000    -0.352484   
O483     O      0.857910000000     0.629870000000     0.621920000000    -0.356042   
O484     O      0.896270000000     0.598400000000     0.645290000000    -0.350675   
O485     O      0.860820000000     0.720260000000     0.620590000000    -0.363796   
O486     O      0.897330000000     0.751790000000     0.644930000000    -0.353075   
O487     O      0.026260000000     0.629800000000     0.622200000000    -0.358602   
O488     O      0.987620000000     0.598360000000     0.645430000000    -0.35095    
O489     O      0.006030000000     0.673810000000     0.588420000000    -0.336177   
O490     O      0.085720000000     0.676010000000     0.633810000000    -0.517305   
O491     O      0.878050000000     0.674070000000     0.588640000000    -0.507307   
O492     O      0.797660000000     0.675880000000     0.633260000000    -0.335275   
O493     O      0.942140000000     0.701490000000     0.632720000000    -0.466637   
O494     O      0.942090000000     0.648880000000     0.632910000000    -0.612833   
O495     O      0.025200000000     0.629700000000     0.729140000000    -0.360055   
O496     O      0.987180000000     0.598350000000     0.705390000000    -0.351447   
O497     O      0.860940000000     0.720360000000     0.730220000000    -0.360508   
O498     O      0.897190000000     0.751800000000     0.705590000000    -0.352989   
O499     O      0.857920000000     0.629770000000     0.728860000000    -0.356654   
O500     O      0.896090000000     0.598390000000     0.705230000000    -0.35091    
O501     O      0.022210000000     0.720310000000     0.730520000000    -0.357208   
O502     O      0.986390000000     0.751790000000     0.705720000000    -0.35285    
O503     O      0.006780000000     0.673920000000     0.762180000000    -0.506946   
O504     O      0.086120000000     0.676050000000     0.717030000000    -0.342145   
O505     O      0.877240000000     0.673910000000     0.762420000000    -0.335696   
O506     O      0.798030000000     0.676130000000     0.716850000000    -0.516553   
O507     O      0.941610000000     0.648870000000     0.717840000000    -0.61274    
O508     O      0.941680000000     0.701520000000     0.718000000000    -0.46626    
O509     O      0.013280000000     0.645930000000     0.675560000000    -0.477341   
O510     O      0.870860000000     0.703910000000     0.675270000000    -0.623681   
O511     O      0.012970000000     0.703850000000     0.675560000000    -0.623154   
O512     O      0.870400000000     0.646000000000     0.675260000000    -0.472601   
Zr1      Zr     0.626610000000     0.386900000000     0.925290000000     1.2936     
Zr2      Zr     0.257220000000     0.386960000000     0.925140000000     1.29349    
Zr3      Zr     0.626520000000     0.963530000000     0.425300000000     1.29225    
Zr4      Zr     0.257100000000     0.963600000000     0.425150000000     1.29256    
Zr5      Zr     0.192010000000     0.925180000000     0.975670000000     1.26583    
Zr6      Zr     0.691720000000     0.425190000000     0.374750000000     1.26557    
Zr7      Zr     0.507390000000     0.175020000000     0.137220000000     1.29387    
Zr8      Zr     0.376790000000     0.175080000000     0.136940000000     1.29394    
Zr9      Zr     0.506950000000     0.175030000000     0.213870000000     1.29255    
Zr10     Zr     0.376380000000     0.175090000000     0.213620000000     1.29312    
Zr11     Zr     0.441930000000     0.225500000000     0.175340000000     1.26979    
Zr12     Zr     0.441820000000     0.124610000000     0.175350000000     1.26557    
Zr13     Zr     0.626610000000     0.386900000000     0.425290000000     1.29385    
Zr14     Zr     0.257220000000     0.386960000000     0.425140000000     1.2937     
Zr15     Zr     0.626520000000     0.963530000000     0.925300000000     1.29198    
Zr16     Zr     0.257100000000     0.963600000000     0.925150000000     1.29235    
Zr17     Zr     0.192010000000     0.925180000000     0.475670000000     1.26991    
Zr18     Zr     0.691720000000     0.425190000000     0.874750000000     1.2656     
Zr19     Zr     0.507390000000     0.175020000000     0.637220000000     1.29386    
Zr20     Zr     0.376790000000     0.175080000000     0.636950000000     1.29381    
Zr21     Zr     0.506950000000     0.175030000000     0.713880000000     1.29269    
Zr22     Zr     0.376380000000     0.175090000000     0.713620000000     1.29312    
Zr23     Zr     0.441930000000     0.225500000000     0.675340000000     1.26972    
Zr24     Zr     0.441820000000     0.124610000000     0.675350000000     1.26559    
Zr25     Zr     0.626610000000     0.886900000000     0.925290000000     1.29358    
Zr26     Zr     0.257220000000     0.886960000000     0.925140000000     1.2935     
Zr27     Zr     0.626520000000     0.463530000000     0.425300000000     1.29243    
Zr28     Zr     0.257100000000     0.463600000000     0.425150000000     1.29275    
Zr29     Zr     0.192010000000     0.425180000000     0.975670000000     1.26583    
Zr30     Zr     0.691720000000     0.925190000000     0.374750000000     1.26556    
Zr31     Zr     0.507390000000     0.675020000000     0.137220000000     1.29387    
Zr32     Zr     0.376790000000     0.675080000000     0.136940000000     1.29394    
Zr33     Zr     0.506950000000     0.675030000000     0.213870000000     1.29256    
Zr34     Zr     0.376380000000     0.675090000000     0.213620000000     1.29312    
Zr35     Zr     0.441930000000     0.725500000000     0.175340000000     1.2698     
Zr36     Zr     0.441820000000     0.624610000000     0.175350000000     1.26557    
Zr37     Zr     0.626610000000     0.886900000000     0.425290000000     1.29383    
Zr38     Zr     0.257220000000     0.886960000000     0.425140000000     1.2937     
Zr39     Zr     0.626520000000     0.463530000000     0.925300000000     1.29217    
Zr40     Zr     0.257100000000     0.463600000000     0.925150000000     1.29254    
Zr41     Zr     0.192010000000     0.425180000000     0.475670000000     1.26991    
Zr42     Zr     0.691720000000     0.925190000000     0.874750000000     1.2656     
Zr43     Zr     0.507390000000     0.675020000000     0.637220000000     1.29386    
Zr44     Zr     0.376790000000     0.675080000000     0.636950000000     1.29381    
Zr45     Zr     0.506950000000     0.675030000000     0.713880000000     1.2927     
Zr46     Zr     0.376380000000     0.675090000000     0.713620000000     1.29313    
Zr47     Zr     0.441930000000     0.725500000000     0.675340000000     1.26972    
Zr48     Zr     0.441820000000     0.624610000000     0.675350000000     1.26559    
Zr49     Zr     0.126610000000     0.386900000000     0.925290000000     1.29366    
Zr50     Zr     0.757220000000     0.386960000000     0.925140000000     1.2935     
Zr51     Zr     0.126510000000     0.963530000000     0.425300000000     1.29226    
Zr52     Zr     0.757100000000     0.963600000000     0.425150000000     1.29256    
Zr53     Zr     0.692010000000     0.925180000000     0.975670000000     1.26576    
Zr54     Zr     0.191720000000     0.425190000000     0.374750000000     1.26558    
Zr55     Zr     0.007390000000     0.175020000000     0.137220000000     1.29381    
Zr56     Zr     0.876790000000     0.175080000000     0.136940000000     1.29395    
Zr57     Zr     0.006950000000     0.175030000000     0.213870000000     1.2925     
Zr58     Zr     0.876380000000     0.175090000000     0.213620000000     1.29312    
Zr59     Zr     0.941930000000     0.225500000000     0.175340000000     1.26986    
Zr60     Zr     0.941820000000     0.124610000000     0.175350000000     1.2656     
Zr61     Zr     0.126610000000     0.386900000000     0.425290000000     1.29391    
Zr62     Zr     0.757220000000     0.386960000000     0.425140000000     1.2937     
Zr63     Zr     0.126510000000     0.963530000000     0.925300000000     1.29199    
Zr64     Zr     0.757100000000     0.963600000000     0.925150000000     1.29235    
Zr65     Zr     0.692010000000     0.925180000000     0.475670000000     1.26984    
Zr66     Zr     0.191720000000     0.425190000000     0.874750000000     1.26562    
Zr67     Zr     0.007390000000     0.175020000000     0.637220000000     1.29381    
Zr68     Zr     0.876790000000     0.175080000000     0.636950000000     1.29382    
Zr69     Zr     0.006950000000     0.175030000000     0.713880000000     1.29264    
Zr70     Zr     0.876380000000     0.175090000000     0.713620000000     1.29312    
Zr71     Zr     0.941930000000     0.225500000000     0.675340000000     1.26979    
Zr72     Zr     0.941820000000     0.124610000000     0.675350000000     1.26562    
Zr73     Zr     0.126610000000     0.886900000000     0.925290000000     1.29364    
Zr74     Zr     0.757220000000     0.886960000000     0.925140000000     1.29351    
Zr75     Zr     0.126510000000     0.463530000000     0.425300000000     1.29245    
Zr76     Zr     0.757100000000     0.463600000000     0.425150000000     1.29275    
Zr77     Zr     0.692010000000     0.425180000000     0.975670000000     1.26576    
Zr78     Zr     0.191720000000     0.925190000000     0.374750000000     1.26558    
Zr79     Zr     0.007390000000     0.675020000000     0.137220000000     1.29382    
Zr80     Zr     0.876790000000     0.675080000000     0.136940000000     1.29395    
Zr81     Zr     0.006950000000     0.675030000000     0.213870000000     1.2925     
Zr82     Zr     0.876380000000     0.675090000000     0.213620000000     1.29312    
Zr83     Zr     0.941930000000     0.725500000000     0.175340000000     1.26987    
Zr84     Zr     0.941820000000     0.624610000000     0.175350000000     1.26559    
Zr85     Zr     0.126610000000     0.886900000000     0.425290000000     1.29389    
Zr86     Zr     0.757220000000     0.886960000000     0.425140000000     1.29371    
Zr87     Zr     0.126510000000     0.463530000000     0.925300000000     1.29218    
Zr88     Zr     0.757100000000     0.463600000000     0.925150000000     1.29253    
Zr89     Zr     0.692010000000     0.425180000000     0.475670000000     1.26984    
Zr90     Zr     0.191720000000     0.925190000000     0.874750000000     1.26561    
Zr91     Zr     0.007390000000     0.675020000000     0.637220000000     1.29381    
Zr92     Zr     0.876790000000     0.675080000000     0.636950000000     1.29382    
Zr93     Zr     0.006950000000     0.675030000000     0.713880000000     1.29264    
Zr94     Zr     0.876380000000     0.675090000000     0.713620000000     1.29313    
Zr95     Zr     0.941930000000     0.725500000000     0.675340000000     1.26979    
Zr96     Zr     0.941820000000     0.624610000000     0.675350000000     1.26562    


