data_structure

_audit_creation_method RASPA-1.0
_audit_creation_date 2023-5-9
_audit_author_name 'Poobodin Mano'

_cell_length_a    55.6792
_cell_length_b    55.6799
_cell_length_c    55.687
_cell_angle_alpha 90
_cell_angle_beta  90
_cell_angle_gamma 90
_cell_volume      172642

_symmetry_cell_setting          triclinic
_symmetry_space_group_name_Hall 'P 1'
_symmetry_space_group_name_H-M  'P 1'
_symmetry_Int_Tables_number     1

_symmetry_equiv_pos_as_xyz 'x,y,z'

loop_
_atom_site_label
_atom_site_type_symbol
_atom_site_fract_x
_atom_site_fract_y
_atom_site_fract_z
_atom_site_charge
C1       C      0.960940000000     0.019530000000     0.147920000000     0.33322    
C2       C      0.019380000000     0.959810000000     0.272700000000     0.333997   
C3       C      0.019430000000     0.960340000000     0.147930000000     0.33157    
C4       C      0.958800000000     0.019520000000     0.272730000000     0.33467    
C5       C      0.401030000000     0.460980000000     0.272700000000     0.334386   
C6       C      0.459530000000     0.401190000000     0.147930000000     0.334053   
C7       C      0.461540000000     0.401200000000     0.272740000000     0.3353     
C8       C      0.400980000000     0.460330000000     0.147930000000     0.331948   
C9       C      0.459530000000     0.147950000000     0.019490000000     0.333299   
C10      C      0.400940000000     0.272730000000     0.959370000000     0.334396   
C11      C      0.400900000000     0.147980000000     0.960760000000     0.332146   
C12      C      0.461500000000     0.272780000000     0.019480000000     0.334475   
C13      C      0.019340000000     0.272740000000     0.461360000000     0.333665   
C14      C      0.960710000000     0.147950000000     0.401170000000     0.333972   
C15      C      0.958850000000     0.272790000000     0.401180000000     0.335188   
C16      C      0.019380000000     0.147970000000     0.459840000000     0.331407   
C17      C      0.272570000000     0.019470000000     0.961410000000     0.333468   
C18      C      0.147780000000     0.959800000000     0.019460000000     0.333956   
C19      C      0.272570000000     0.960280000000     0.019500000000     0.331493   
C20      C      0.147730000000     0.019460000000     0.958490000000     0.334987   
C21      C      0.147780000000     0.460800000000     0.401110000000     0.334449   
C22      C      0.272570000000     0.401200000000     0.459130000000     0.334397   
C23      C      0.147730000000     0.401200000000     0.462130000000     0.335641   
C24      C      0.272570000000     0.460430000000     0.401070000000     0.331923   
C25      C      0.304810000000     0.341880000000     0.950780000000    -0.0650312  
C26      C      0.328340000000     0.347480000000     0.458100000000     0.0213103  
C27      C      0.333510000000     0.371190000000     0.465170000000    -0.0646465  
C28      C      0.315530000000     0.388740000000     0.465190000000     0.0187453  
C29      C      0.291910000000     0.382940000000     0.458360000000    -0.0995952  
C30      C      0.286820000000     0.359320000000     0.951060000000     0.0188018  
C31      C      0.347200000000     0.328510000000     0.958680000000     0.0211211  
C32      C      0.341330000000     0.304920000000     0.965570000000    -0.0642014  
C33      C      0.358760000000     0.286910000000     0.965720000000     0.0189522  
C34      C      0.382620000000     0.292050000000     0.959290000000    -0.0974113  
C35      C      0.388660000000     0.315680000000     0.452760000000     0.0194092  
C36      C      0.371120000000     0.333680000000     0.452340000000    -0.0638461  
C37      C      0.341470000000     0.115560000000     0.453980000000    -0.0635768  
C38      C      0.347190000000     0.092170000000     0.961610000000     0.0203238  
C39      C      0.370950000000     0.087180000000     0.968630000000    -0.0637744  
C40      C      0.388490000000     0.105190000000     0.968160000000     0.0180361  
C41      C      0.382600000000     0.128640000000     0.960870000000    -0.0977541  
C42      C      0.358890000000     0.133570000000     0.453750000000     0.0161401  
C43      C      0.328330000000     0.073210000000     0.962270000000     0.0212502  
C44      C      0.304690000000     0.078960000000     0.469070000000    -0.0651162  
C45      C      0.286700000000     0.061510000000     0.468870000000     0.0184631  
C46      C      0.291900000000     0.037750000000     0.962130000000    -0.0992993  
C47      C      0.315640000000     0.031810000000     0.955820000000     0.0184683  
C48      C      0.333610000000     0.049360000000     0.955790000000    -0.0645053  
C49      C      0.086960000000     0.371040000000     0.955090000000    -0.0637835  
C50      C      0.091890000000     0.347530000000     0.462920000000     0.0215711  
C51      C      0.115180000000     0.342120000000     0.471080000000    -0.0645344  
C52      C      0.133190000000     0.359550000000     0.470900000000     0.0202795  
C53      C      0.128350000000     0.382970000000     0.462810000000    -0.0968625  
C54      C      0.104950000000     0.388590000000     0.955130000000     0.0186358  
C55      C      0.073060000000     0.328550000000     0.462250000000     0.0212551  
C56      C      0.048990000000     0.333840000000     0.967910000000    -0.063794   
C57      C      0.031470000000     0.315820000000     0.967430000000     0.0192571  
C58      C      0.037660000000     0.292060000000     0.461500000000    -0.0972942  
C59      C      0.061670000000     0.286830000000     0.455750000000     0.0188298  
C60      C      0.079090000000     0.304840000000     0.455990000000    -0.0640354  
C61      C      0.078980000000     0.115650000000     0.465730000000    -0.0635577  
C62      C      0.073070000000     0.092130000000     0.458710000000     0.0204762  
C63      C      0.049140000000     0.087010000000     0.952400000000    -0.0637279  
C64      C      0.031620000000     0.105030000000     0.952940000000     0.0178889  
C65      C      0.037680000000     0.128620000000     0.459640000000    -0.0975465  
C66      C      0.061570000000     0.133670000000     0.466070000000     0.0160461  
C67      C      0.091900000000     0.073160000000     0.957940000000     0.0214998  
C68      C      0.115310000000     0.078740000000     0.450260000000    -0.0646825  
C69      C      0.133310000000     0.061300000000     0.450340000000     0.020019   
C70      C      0.128350000000     0.037710000000     0.957860000000    -0.0966863  
C71      C      0.104830000000     0.031940000000     0.965060000000     0.0183128  
C72      C      0.086840000000     0.049490000000     0.965180000000    -0.0638963  
C73      C      0.371220000000     0.466760000000     0.333800000000    -0.0640625  
C74      C      0.347300000000     0.460560000000     0.328480000000     0.0215322  
C75      C      0.341430000000     0.954150000000     0.304760000000    -0.0642518  
C76      C      0.358850000000     0.954350000000     0.286760000000     0.0191722  
C77      C      0.382710000000     0.460700000000     0.292020000000    -0.0974014  
C78      C      0.388760000000     0.466720000000     0.315790000000     0.0193979  
C79      C      0.328400000000     0.460950000000     0.347400000000     0.0206869  
C80      C      0.333400000000     0.453410000000     0.371000000000    -0.0638226  
C81      C      0.315390000000     0.453430000000     0.388530000000     0.0182218  
C82      C      0.291910000000     0.460780000000     0.382790000000    -0.0978397  
C83      C      0.286980000000     0.968470000000     0.359260000000     0.0164727  
C84      C      0.305000000000     0.968690000000     0.341860000000    -0.0634786  
C85      C      0.078820000000     0.967410000000     0.304870000000    -0.0641301  
C86      C      0.073100000000     0.960440000000     0.328470000000     0.021509   
C87      C      0.049320000000     0.453620000000     0.333670000000    -0.063916   
C88      C      0.031780000000     0.453600000000     0.315670000000     0.0194449  
C89      C      0.037690000000     0.960160000000     0.292010000000    -0.0974045  
C90      C      0.061400000000     0.967110000000     0.286860000000     0.0193041  
C91      C      0.092020000000     0.460130000000     0.347390000000     0.0215816  
C92      C      0.115620000000     0.953170000000     0.341690000000    -0.0641537  
C93      C      0.133630000000     0.953470000000     0.359110000000     0.0194594  
C94      C      0.128470000000     0.460430000000     0.382810000000    -0.0976526  
C95      C      0.104810000000     0.467000000000     0.388700000000     0.0196949  
C96      C      0.086810000000     0.466970000000     0.371160000000    -0.0640196  
C97      C      0.049490000000     0.467390000000     0.087100000000    -0.0639163  
C98      C      0.073100000000     0.959860000000     0.092100000000     0.0206963  
C99      C      0.078650000000     0.952140000000     0.115490000000    -0.0634614  
C100     C      0.061250000000     0.952350000000     0.133520000000     0.016362   
C101     C      0.037710000000     0.960020000000     0.128590000000    -0.0978017  
C102     C      0.031960000000     0.467360000000     0.105120000000     0.0180696  
C103     C      0.092010000000     0.960260000000     0.073190000000     0.0215289  
C104     C      0.086690000000     0.454040000000     0.049280000000    -0.0640874  
C105     C      0.104690000000     0.454080000000     0.031740000000     0.0194516  
C106     C      0.128470000000     0.960110000000     0.037770000000    -0.0974825  
C107     C      0.133730000000     0.966470000000     0.061620000000     0.0191315  
C108     C      0.115730000000     0.966680000000     0.079050000000    -0.0642401  
C109     C      0.371060000000     0.953640000000     0.086970000000    -0.0639855  
C110     C      0.347290000000     0.460540000000     0.092100000000     0.0206505  
C111     C      0.341570000000     0.467730000000     0.115620000000    -0.0636736  
C112     C      0.358970000000     0.467620000000     0.133630000000     0.016301   
C113     C      0.382680000000     0.460570000000     0.128590000000    -0.0978059  
C114     C      0.388590000000     0.953750000000     0.104990000000     0.0180582  
C115     C      0.328390000000     0.960040000000     0.073190000000     0.0207614  
C116     C      0.333530000000     0.966950000000     0.049430000000    -0.0640642  
C117     C      0.315510000000     0.966850000000     0.031910000000     0.0180917  
C118     C      0.291910000000     0.960020000000     0.037800000000    -0.0977854  
C119     C      0.286860000000     0.452950000000     0.061490000000     0.0163374  
C120     C      0.304870000000     0.452830000000     0.078910000000    -0.0638324  
C121     C      0.466650000000     0.049570000000     0.333460000000    -0.0637787  
C122     C      0.959280000000     0.073240000000     0.328540000000     0.0211605  
C123     C      0.951190000000     0.078820000000     0.305270000000    -0.0646387  
C124     C      0.950940000000     0.061370000000     0.287280000000     0.0198807  
C125     C      0.958520000000     0.037780000000     0.292110000000    -0.0966013  
C126     C      0.466170000000     0.032020000000     0.315480000000     0.0182809  
C127     C      0.960210000000     0.092160000000     0.347430000000     0.0211144  
C128     C      0.454320000000     0.086890000000     0.371430000000    -0.0643983  
C129     C      0.454800000000     0.104870000000     0.388970000000     0.0184209  
C130     C      0.960980000000     0.128600000000     0.382870000000    -0.0992041  
C131     C      0.967090000000     0.133800000000     0.358940000000     0.0183335  
C132     C      0.966840000000     0.115800000000     0.341490000000    -0.0650002  
C133     C      0.468230000000     0.341720000000     0.305160000000    -0.0645005  
C134     C      0.460730000000     0.347500000000     0.328570000000     0.0213293  
C135     C      0.954080000000     0.371350000000     0.333630000000    -0.0637011  
C136     C      0.954650000000     0.388890000000     0.315640000000     0.0183568  
C137     C      0.461720000000     0.382940000000     0.292130000000    -0.0966486  
C138     C      0.468610000000     0.359160000000     0.287160000000     0.019855   
C139     C      0.959670000000     0.328610000000     0.347470000000     0.0214223  
C140     C      0.452160000000     0.305200000000     0.341690000000    -0.0645663  
C141     C      0.451770000000     0.287200000000     0.359140000000     0.0198795  
C142     C      0.958680000000     0.292170000000     0.382910000000    -0.0966539  
C143     C      0.965760000000     0.315680000000     0.388850000000     0.0183934  
C144     C      0.966340000000     0.333670000000     0.371310000000    -0.0637889  
C145     C      0.453590000000     0.333500000000     0.049540000000    -0.0638033  
C146     C      0.460950000000     0.328570000000     0.073210000000     0.0211313  
C147     C      0.969050000000     0.305310000000     0.078790000000    -0.0645288  
C148     C      0.969320000000     0.287310000000     0.061340000000     0.0197667  
C149     C      0.461750000000     0.292150000000     0.037750000000    -0.0965371  
C150     C      0.454080000000     0.315520000000     0.031990000000     0.0181459  
C151     C      0.460010000000     0.347460000000     0.092130000000     0.0210848  
C152     C      0.465910000000     0.371460000000     0.086870000000    -0.0643554  
C153     C      0.465430000000     0.389000000000     0.104860000000     0.0184763  
C154     C      0.459240000000     0.382900000000     0.128570000000    -0.099221   
C155     C      0.953130000000     0.358960000000     0.133770000000     0.0182925  
C156     C      0.953380000000     0.341510000000     0.115770000000    -0.0650203  
C157     C      0.967930000000     0.079030000000     0.115660000000    -0.0650814  
C158     C      0.960680000000     0.073270000000     0.092150000000     0.0208474  
C159     C      0.454090000000     0.049420000000     0.087010000000    -0.0645176  
C160     C      0.454500000000     0.031870000000     0.104990000000     0.0183235  
C161     C      0.961290000000     0.037810000000     0.128580000000    -0.0993286  
C162     C      0.968090000000     0.061580000000     0.133650000000     0.0183052  
C163     C      0.459840000000     0.092180000000     0.073240000000     0.0208002  
C164     C      0.952600000000     0.115690000000     0.079010000000    -0.0651011  
C165     C      0.452430000000     0.133690000000     0.061550000000     0.0181703  
C166     C      0.459200000000     0.128600000000     0.037780000000    -0.0991581  
C167     C      0.465990000000     0.105010000000     0.031830000000     0.018157   
C168     C      0.466420000000     0.087040000000     0.049390000000    -0.0644096  
C169     C      0.960940000000     0.019530000000     0.647920000000     0.333475   
C170     C      0.019380000000     0.959810000000     0.772700000000     0.333994   
C171     C      0.019430000000     0.960340000000     0.647930000000     0.331574   
C172     C      0.958800000000     0.019520000000     0.772730000000     0.334649   
C173     C      0.401030000000     0.460980000000     0.772700000000     0.334378   
C174     C      0.459530000000     0.401190000000     0.647920000000     0.333944   
C175     C      0.461540000000     0.401200000000     0.772740000000     0.335295   
C176     C      0.400980000000     0.460330000000     0.647930000000     0.331943   
C177     C      0.459530000000     0.147950000000     0.519490000000     0.333943   
C178     C      0.400940000000     0.272730000000     0.459370000000     0.334377   
C179     C      0.400900000000     0.147980000000     0.460760000000     0.332129   
C180     C      0.461500000000     0.272780000000     0.519480000000     0.33526    
C181     C      0.019340000000     0.272740000000     0.961360000000     0.333688   
C182     C      0.960710000000     0.147950000000     0.901170000000     0.333968   
C183     C      0.958850000000     0.272790000000     0.901180000000     0.335184   
C184     C      0.019380000000     0.147970000000     0.959840000000     0.331427   
C185     C      0.272570000000     0.019470000000     0.461410000000     0.33344    
C186     C      0.147780000000     0.959800000000     0.519460000000     0.334607   
C187     C      0.272570000000     0.960280000000     0.519510000000     0.33204    
C188     C      0.147730000000     0.019460000000     0.458490000000     0.334973   
C189     C      0.147780000000     0.460800000000     0.901110000000     0.334446   
C190     C      0.272570000000     0.401200000000     0.959130000000     0.334416   
C191     C      0.147730000000     0.401200000000     0.962130000000     0.335658   
C192     C      0.272570000000     0.460430000000     0.901070000000     0.331918   
C193     C      0.304810000000     0.341880000000     0.450780000000    -0.0650531  
C194     C      0.328340000000     0.347480000000     0.958100000000     0.0213296  
C195     C      0.333510000000     0.371190000000     0.965170000000    -0.0646146  
C196     C      0.315530000000     0.388740000000     0.965190000000     0.0187711  
C197     C      0.291910000000     0.382940000000     0.958370000000    -0.0995704  
C198     C      0.286820000000     0.359320000000     0.451060000000     0.0187997  
C199     C      0.347200000000     0.328510000000     0.458680000000     0.0211011  
C200     C      0.341330000000     0.304920000000     0.465570000000    -0.0642362  
C201     C      0.358760000000     0.286910000000     0.465720000000     0.0189475  
C202     C      0.382620000000     0.292050000000     0.459290000000    -0.0974446  
C203     C      0.388660000000     0.315680000000     0.952760000000     0.0194299  
C204     C      0.371120000000     0.333680000000     0.952340000000    -0.0638234  
C205     C      0.341470000000     0.115560000000     0.953980000000    -0.0635407  
C206     C      0.347190000000     0.092170000000     0.461610000000     0.0202978  
C207     C      0.370950000000     0.087180000000     0.468630000000    -0.0637881  
C208     C      0.388490000000     0.105190000000     0.468160000000     0.0180061  
C209     C      0.382600000000     0.128640000000     0.460870000000    -0.0978081  
C210     C      0.358890000000     0.133570000000     0.953740000000     0.0161218  
C211     C      0.328330000000     0.073210000000     0.462270000000     0.0212256  
C212     C      0.304690000000     0.078960000000     0.969070000000    -0.0651016  
C213     C      0.286700000000     0.061510000000     0.968860000000     0.0185205  
C214     C      0.291900000000     0.037750000000     0.462130000000    -0.0993224  
C215     C      0.315640000000     0.031810000000     0.455820000000     0.0184496  
C216     C      0.333610000000     0.049360000000     0.455790000000    -0.0645468  
C217     C      0.086960000000     0.371040000000     0.455080000000    -0.0638445  
C218     C      0.091890000000     0.347530000000     0.962920000000     0.021574   
C219     C      0.115180000000     0.342120000000     0.971080000000    -0.0644615  
C220     C      0.133190000000     0.359550000000     0.970900000000     0.0202701  
C221     C      0.128350000000     0.382970000000     0.962810000000    -0.0968084  
C222     C      0.104950000000     0.388590000000     0.455130000000     0.0186369  
C223     C      0.073060000000     0.328550000000     0.962260000000     0.0212837  
C224     C      0.048990000000     0.333840000000     0.467910000000    -0.0638194  
C225     C      0.031470000000     0.315820000000     0.467430000000     0.0192284  
C226     C      0.037660000000     0.292060000000     0.961500000000    -0.0972605  
C227     C      0.061670000000     0.286830000000     0.955750000000     0.0188306  
C228     C      0.079090000000     0.304840000000     0.955990000000    -0.0640122  
C229     C      0.078980000000     0.115650000000     0.965730000000    -0.0635328  
C230     C      0.073070000000     0.092130000000     0.958710000000     0.0205008  
C231     C      0.049140000000     0.087010000000     0.452400000000    -0.0637475  
C232     C      0.031620000000     0.105030000000     0.452940000000     0.0178648  
C233     C      0.037680000000     0.128620000000     0.959640000000    -0.0975173  
C234     C      0.061570000000     0.133670000000     0.966070000000     0.0160727  
C235     C      0.091900000000     0.073160000000     0.457940000000     0.0214845  
C236     C      0.115310000000     0.078740000000     0.950260000000    -0.0646654  
C237     C      0.133310000000     0.061300000000     0.950340000000     0.0200297  
C238     C      0.128350000000     0.037710000000     0.457860000000    -0.0967151  
C239     C      0.104830000000     0.031940000000     0.465060000000     0.0183082  
C240     C      0.086840000000     0.049490000000     0.465180000000    -0.0639361  
C241     C      0.371220000000     0.466760000000     0.833800000000    -0.0640702  
C242     C      0.347300000000     0.460560000000     0.828480000000     0.0215487  
C243     C      0.341430000000     0.954150000000     0.804760000000    -0.0642419  
C244     C      0.358850000000     0.954350000000     0.786760000000     0.0191373  
C245     C      0.382710000000     0.460700000000     0.792020000000    -0.0973894  
C246     C      0.388760000000     0.466720000000     0.815790000000     0.0193932  
C247     C      0.328400000000     0.460950000000     0.847400000000     0.0206779  
C248     C      0.333400000000     0.453410000000     0.871000000000    -0.0638195  
C249     C      0.315390000000     0.453430000000     0.888530000000     0.0182184  
C250     C      0.291910000000     0.460780000000     0.882790000000    -0.0978401  
C251     C      0.286980000000     0.968470000000     0.859260000000     0.0164637  
C252     C      0.305000000000     0.968690000000     0.841860000000    -0.0634761  
C253     C      0.078820000000     0.967410000000     0.804870000000    -0.0641327  
C254     C      0.073100000000     0.960440000000     0.828470000000     0.0215074  
C255     C      0.049320000000     0.453620000000     0.833670000000    -0.0639136  
C256     C      0.031780000000     0.453600000000     0.815670000000     0.0194391  
C257     C      0.037690000000     0.960160000000     0.792010000000    -0.0974043  
C258     C      0.061400000000     0.967110000000     0.786860000000     0.0193019  
C259     C      0.092020000000     0.460130000000     0.847390000000     0.0215806  
C260     C      0.115620000000     0.953170000000     0.841690000000    -0.0641562  
C261     C      0.133630000000     0.953470000000     0.859110000000     0.0194556  
C262     C      0.128470000000     0.460430000000     0.882810000000    -0.0976528  
C263     C      0.104810000000     0.467000000000     0.888700000000     0.0196935  
C264     C      0.086810000000     0.466970000000     0.871160000000    -0.06402    
C265     C      0.049490000000     0.467390000000     0.587100000000    -0.0638993  
C266     C      0.073100000000     0.959860000000     0.592100000000     0.0206984  
C267     C      0.078650000000     0.952140000000     0.615490000000    -0.0634511  
C268     C      0.061250000000     0.952350000000     0.633520000000     0.0163672  
C269     C      0.037710000000     0.960020000000     0.628590000000    -0.0978005  
C270     C      0.031960000000     0.467360000000     0.605120000000     0.0180824  
C271     C      0.092010000000     0.960260000000     0.573190000000     0.0215928  
C272     C      0.086690000000     0.454040000000     0.549280000000    -0.0641034  
C273     C      0.104690000000     0.454080000000     0.531740000000     0.0196105  
C274     C      0.128470000000     0.960110000000     0.537770000000    -0.0976125  
C275     C      0.133730000000     0.966470000000     0.561620000000     0.019253   
C276     C      0.115730000000     0.966680000000     0.579050000000    -0.0642894  
C277     C      0.371060000000     0.953640000000     0.586970000000    -0.0638872  
C278     C      0.347290000000     0.460540000000     0.592100000000     0.0206335  
C279     C      0.341570000000     0.467730000000     0.615620000000    -0.0636519  
C280     C      0.358970000000     0.467620000000     0.633630000000     0.0162926  
C281     C      0.382680000000     0.460570000000     0.628590000000    -0.0977859  
C282     C      0.388590000000     0.953750000000     0.604990000000     0.0180322  
C283     C      0.328390000000     0.960040000000     0.573190000000     0.0208294  
C284     C      0.333530000000     0.966950000000     0.549430000000    -0.0640929  
C285     C      0.315510000000     0.966850000000     0.531910000000     0.0182788  
C286     C      0.291910000000     0.960020000000     0.537800000000    -0.0979778  
C287     C      0.286860000000     0.452940000000     0.561490000000     0.0163895  
C288     C      0.304870000000     0.452830000000     0.578910000000    -0.0637651  
C289     C      0.466650000000     0.049570000000     0.833460000000    -0.0637583  
C290     C      0.959280000000     0.073240000000     0.828540000000     0.0211305  
C291     C      0.951190000000     0.078820000000     0.805270000000    -0.0645791  
C292     C      0.950940000000     0.061370000000     0.787270000000     0.0197834  
C293     C      0.958520000000     0.037780000000     0.792110000000    -0.0965518  
C294     C      0.466170000000     0.032020000000     0.815480000000     0.0182539  
C295     C      0.960210000000     0.092160000000     0.847430000000     0.0211221  
C296     C      0.454320000000     0.086890000000     0.871430000000    -0.0644025  
C297     C      0.454800000000     0.104870000000     0.888970000000     0.018421   
C298     C      0.960980000000     0.128600000000     0.882870000000    -0.0992078  
C299     C      0.967090000000     0.133800000000     0.858940000000     0.0183311  
C300     C      0.966840000000     0.115800000000     0.841490000000    -0.0650088  
C301     C      0.468230000000     0.341720000000     0.805160000000    -0.0644673  
C302     C      0.460730000000     0.347500000000     0.828580000000     0.021285   
C303     C      0.954080000000     0.371350000000     0.833630000000    -0.0637036  
C304     C      0.954650000000     0.388890000000     0.815640000000     0.0183559  
C305     C      0.461720000000     0.382940000000     0.792130000000    -0.0966408  
C306     C      0.468610000000     0.359160000000     0.787160000000     0.0198356  
C307     C      0.959670000000     0.328610000000     0.847470000000     0.0214192  
C308     C      0.452160000000     0.305200000000     0.841690000000    -0.0645742  
C309     C      0.451770000000     0.287200000000     0.859140000000     0.019878   
C310     C      0.958680000000     0.292170000000     0.882910000000    -0.0966532  
C311     C      0.965760000000     0.315680000000     0.888850000000     0.0183917  
C312     C      0.966340000000     0.333670000000     0.871310000000    -0.063788   
C313     C      0.453590000000     0.333500000000     0.549540000000    -0.0638279  
C314     C      0.460950000000     0.328570000000     0.573210000000     0.0211919  
C315     C      0.969050000000     0.305310000000     0.578790000000    -0.0645641  
C316     C      0.969320000000     0.287310000000     0.561340000000     0.0198954  
C317     C      0.461750000000     0.292150000000     0.537750000000    -0.096733   
C318     C      0.454080000000     0.315520000000     0.531990000000     0.0183309  
C319     C      0.460010000000     0.347460000000     0.592130000000     0.0210977  
C320     C      0.465910000000     0.371460000000     0.586870000000    -0.0643502  
C321     C      0.465430000000     0.389000000000     0.604860000000     0.0185114  
C322     C      0.459240000000     0.382900000000     0.628570000000    -0.0992853  
C323     C      0.953130000000     0.358960000000     0.633770000000     0.0183323  
C324     C      0.953380000000     0.341510000000     0.615770000000    -0.0650262  
C325     C      0.967930000000     0.079030000000     0.615660000000    -0.0650968  
C326     C      0.960680000000     0.073270000000     0.592150000000     0.0208709  
C327     C      0.454090000000     0.049420000000     0.587010000000    -0.0645275  
C328     C      0.454500000000     0.031870000000     0.604990000000     0.0183798  
C329     C      0.961290000000     0.037810000000     0.628580000000    -0.0994166  
C330     C      0.968090000000     0.061580000000     0.633650000000     0.0183592  
C331     C      0.459840000000     0.092180000000     0.573240000000     0.0208342  
C332     C      0.952600000000     0.115690000000     0.579010000000    -0.0651226  
C333     C      0.452430000000     0.133690000000     0.561550000000     0.0182704  
C334     C      0.459200000000     0.128600000000     0.537780000000    -0.0992814  
C335     C      0.465990000000     0.105010000000     0.531830000000     0.0182954  
C336     C      0.466420000000     0.087040000000     0.549390000000    -0.0643899  
C337     C      0.960940000000     0.519530000000     0.147920000000     0.333946   
C338     C      0.019380000000     0.459810000000     0.272700000000     0.333976   
C339     C      0.019430000000     0.460340000000     0.147930000000     0.331274   
C340     C      0.958800000000     0.519520000000     0.272730000000     0.335432   
C341     C      0.401020000000     0.960980000000     0.272700000000     0.334405   
C342     C      0.459530000000     0.901190000000     0.147930000000     0.333919   
C343     C      0.461540000000     0.901200000000     0.272740000000     0.335342   
C344     C      0.400980000000     0.960330000000     0.147930000000     0.331968   
C345     C      0.459530000000     0.647940000000     0.019490000000     0.333206   
C346     C      0.400940000000     0.772730000000     0.959370000000     0.334399   
C347     C      0.400900000000     0.647980000000     0.960760000000     0.332149   
C348     C      0.461500000000     0.772780000000     0.019480000000     0.334472   
C349     C      0.019340000000     0.772740000000     0.461360000000     0.333879   
C350     C      0.960710000000     0.647950000000     0.401170000000     0.333981   
C351     C      0.958850000000     0.772790000000     0.401180000000     0.335311   
C352     C      0.019380000000     0.647970000000     0.459840000000     0.331406   
C353     C      0.272570000000     0.519470000000     0.961410000000     0.334223   
C354     C      0.147780000000     0.459800000000     0.019460000000     0.33396    
C355     C      0.272570000000     0.460290000000     0.019500000000     0.331478   
C356     C      0.147730000000     0.519460000000     0.958490000000     0.335707   
C357     C      0.147780000000     0.960800000000     0.401110000000     0.334488   
C358     C      0.272570000000     0.901200000000     0.459130000000     0.334316   
C359     C      0.147730000000     0.901200000000     0.462120000000     0.335632   
C360     C      0.272570000000     0.960430000000     0.401070000000     0.331953   
C361     C      0.304810000000     0.841880000000     0.950780000000    -0.0650289  
C362     C      0.328340000000     0.847480000000     0.458100000000     0.0212621  
C363     C      0.333510000000     0.871190000000     0.465170000000    -0.0645999  
C364     C      0.315530000000     0.888740000000     0.465190000000     0.0186684  
C365     C      0.291910000000     0.882930000000     0.458360000000    -0.0995021  
C366     C      0.286820000000     0.859320000000     0.951060000000     0.0188056  
C367     C      0.347200000000     0.828500000000     0.958680000000     0.0211663  
C368     C      0.341330000000     0.804920000000     0.965570000000    -0.0642444  
C369     C      0.358760000000     0.786910000000     0.965720000000     0.0189676  
C370     C      0.382620000000     0.792050000000     0.959290000000    -0.0974274  
C371     C      0.388660000000     0.815680000000     0.452760000000     0.0194613  
C372     C      0.371120000000     0.833680000000     0.452340000000    -0.0639625  
C373     C      0.341470000000     0.615560000000     0.453980000000    -0.0635661  
C374     C      0.347190000000     0.592170000000     0.961610000000     0.0203203  
C375     C      0.370950000000     0.587180000000     0.968630000000    -0.0637547  
C376     C      0.388490000000     0.605190000000     0.968160000000     0.0180483  
C377     C      0.382600000000     0.628640000000     0.960870000000    -0.0977487  
C378     C      0.358890000000     0.633570000000     0.453750000000     0.0161448  
C379     C      0.328330000000     0.573210000000     0.962270000000     0.0213279  
C380     C      0.304690000000     0.578960000000     0.469070000000    -0.0651468  
C381     C      0.286700000000     0.561510000000     0.468870000000     0.0185853  
C382     C      0.291900000000     0.537750000000     0.962130000000    -0.0994787  
C383     C      0.315640000000     0.531810000000     0.955820000000     0.0186993  
C384     C      0.333610000000     0.549360000000     0.955790000000    -0.0645641  
C385     C      0.086960000000     0.871040000000     0.955090000000    -0.0638101  
C386     C      0.091890000000     0.847530000000     0.462920000000     0.0215805  
C387     C      0.115180000000     0.842120000000     0.471080000000    -0.0645372  
C388     C      0.133190000000     0.859550000000     0.470900000000     0.0202647  
C389     C      0.128350000000     0.882970000000     0.462810000000    -0.096855   
C390     C      0.104950000000     0.888590000000     0.955130000000     0.0186506  
C391     C      0.073060000000     0.828550000000     0.462250000000     0.0212235  
C392     C      0.048990000000     0.833840000000     0.967910000000    -0.0637694  
C393     C      0.031470000000     0.815830000000     0.967430000000     0.019208   
C394     C      0.037660000000     0.792060000000     0.461500000000    -0.0972908  
C395     C      0.061670000000     0.786820000000     0.455740000000     0.0187657  
C396     C      0.079090000000     0.804840000000     0.455980000000    -0.064      
C397     C      0.078980000000     0.615650000000     0.465730000000    -0.0635483  
C398     C      0.073070000000     0.592130000000     0.458710000000     0.0204841  
C399     C      0.049140000000     0.587010000000     0.952400000000    -0.0636978  
C400     C      0.031620000000     0.605030000000     0.952940000000     0.0178794  
C401     C      0.037680000000     0.628620000000     0.459640000000    -0.0975416  
C402     C      0.061570000000     0.633670000000     0.466070000000     0.0160502  
C403     C      0.091900000000     0.573160000000     0.957940000000     0.0215598  
C404     C      0.115310000000     0.578740000000     0.450260000000    -0.0647073  
C405     C      0.133310000000     0.561300000000     0.450340000000     0.0201376  
C406     C      0.128350000000     0.537710000000     0.957860000000    -0.0968254  
C407     C      0.104830000000     0.531940000000     0.965060000000     0.0184826  
C408     C      0.086840000000     0.549490000000     0.965180000000    -0.0639078  
C409     C      0.371220000000     0.966760000000     0.333800000000    -0.0640576  
C410     C      0.347300000000     0.960560000000     0.328480000000     0.0215862  
C411     C      0.341430000000     0.454150000000     0.304760000000    -0.0642222  
C412     C      0.358850000000     0.454350000000     0.286760000000     0.0190551  
C413     C      0.382710000000     0.960700000000     0.292010000000    -0.0975385  
C414     C      0.388760000000     0.966720000000     0.315790000000     0.0194775  
C415     C      0.328400000000     0.960950000000     0.347400000000     0.0207039  
C416     C      0.333400000000     0.953410000000     0.371000000000    -0.0637943  
C417     C      0.315390000000     0.953430000000     0.388530000000     0.0182469  
C418     C      0.291910000000     0.960780000000     0.382790000000    -0.0978052  
C419     C      0.286980000000     0.468470000000     0.359260000000     0.0164426  
C420     C      0.305000000000     0.468690000000     0.341860000000    -0.0635148  
C421     C      0.078820000000     0.467410000000     0.304870000000    -0.0641712  
C422     C      0.073100000000     0.460440000000     0.328470000000     0.021488   
C423     C      0.049320000000     0.953620000000     0.333670000000    -0.0638796  
C424     C      0.031780000000     0.953600000000     0.315670000000     0.0194528  
C425     C      0.037690000000     0.460160000000     0.292010000000    -0.0974562  
C426     C      0.061400000000     0.467110000000     0.286860000000     0.0192795  
C427     C      0.092020000000     0.960140000000     0.347390000000     0.021612   
C428     C      0.115620000000     0.453170000000     0.341690000000    -0.064172   
C429     C      0.133630000000     0.453470000000     0.359110000000     0.0194372  
C430     C      0.128470000000     0.960430000000     0.382810000000    -0.0976258  
C431     C      0.104810000000     0.967000000000     0.388700000000     0.0197319  
C432     C      0.086810000000     0.966970000000     0.371160000000    -0.0639917  
C433     C      0.049490000000     0.967390000000     0.087100000000    -0.0639094  
C434     C      0.073100000000     0.459860000000     0.092100000000     0.0206439  
C435     C      0.078650000000     0.452140000000     0.115490000000    -0.0634552  
C436     C      0.061250000000     0.452350000000     0.133520000000     0.0162904  
C437     C      0.037710000000     0.460020000000     0.128590000000    -0.0977426  
C438     C      0.031960000000     0.967360000000     0.105120000000     0.0181572  
C439     C      0.092010000000     0.460260000000     0.073190000000     0.0215238  
C440     C      0.086690000000     0.954040000000     0.049280000000    -0.0640328  
C441     C      0.104690000000     0.954070000000     0.031740000000     0.0194381  
C442     C      0.128470000000     0.460110000000     0.037770000000    -0.0975612  
C443     C      0.133730000000     0.466470000000     0.061620000000     0.0191311  
C444     C      0.115730000000     0.466690000000     0.079050000000    -0.0643168  
C445     C      0.371060000000     0.453640000000     0.086970000000    -0.0640089  
C446     C      0.347290000000     0.960540000000     0.092100000000     0.0206824  
C447     C      0.341570000000     0.967730000000     0.115620000000    -0.0636437  
C448     C      0.358970000000     0.967620000000     0.133630000000     0.016333   
C449     C      0.382680000000     0.960570000000     0.128590000000    -0.0977703  
C450     C      0.388590000000     0.453750000000     0.104990000000     0.018031   
C451     C      0.328390000000     0.460040000000     0.073190000000     0.0207427  
C452     C      0.333530000000     0.466950000000     0.049430000000    -0.0641066  
C453     C      0.315510000000     0.466850000000     0.031910000000     0.0180641  
C454     C      0.291910000000     0.460020000000     0.037800000000    -0.0978484  
C455     C      0.286860000000     0.952940000000     0.061490000000     0.0163281  
C456     C      0.304870000000     0.952820000000     0.078910000000    -0.0638101  
C457     C      0.466650000000     0.549570000000     0.333460000000    -0.0637922  
C458     C      0.959280000000     0.573240000000     0.328540000000     0.0212179  
C459     C      0.951190000000     0.578820000000     0.305270000000    -0.0646683  
C460     C      0.950940000000     0.561370000000     0.287280000000     0.0200052  
C461     C      0.958520000000     0.537780000000     0.292110000000    -0.0967581  
C462     C      0.466170000000     0.532020000000     0.315480000000     0.0184586  
C463     C      0.960210000000     0.592160000000     0.347430000000     0.0211301  
C464     C      0.454320000000     0.586890000000     0.371430000000    -0.0644022  
C465     C      0.454800000000     0.604880000000     0.388970000000     0.0184845  
C466     C      0.960980000000     0.628600000000     0.382870000000    -0.0992324  
C467     C      0.967090000000     0.633800000000     0.358940000000     0.0183534  
C468     C      0.966840000000     0.615800000000     0.341490000000    -0.0650001  
C469     C      0.468230000000     0.841720000000     0.305160000000    -0.064528   
C470     C      0.460730000000     0.847500000000     0.328570000000     0.0213518  
C471     C      0.954080000000     0.871350000000     0.333630000000    -0.0637877  
C472     C      0.954650000000     0.888880000000     0.315640000000     0.0184686  
C473     C      0.461720000000     0.882940000000     0.292130000000    -0.096714   
C474     C      0.468610000000     0.859160000000     0.287160000000     0.0198811  
C475     C      0.959670000000     0.828610000000     0.347470000000     0.0214065  
C476     C      0.452160000000     0.805200000000     0.341690000000    -0.0645822  
C477     C      0.451770000000     0.787200000000     0.359140000000     0.0199051  
C478     C      0.958680000000     0.792170000000     0.382910000000    -0.0967233  
C479     C      0.965760000000     0.815680000000     0.388850000000     0.0184138  
C480     C      0.966340000000     0.833670000000     0.371310000000    -0.063796   
C481     C      0.453590000000     0.833500000000     0.049540000000    -0.0637897  
C482     C      0.460950000000     0.828580000000     0.073210000000     0.0211002  
C483     C      0.969050000000     0.805310000000     0.078790000000    -0.0645039  
C484     C      0.969320000000     0.787310000000     0.061340000000     0.0197508  
C485     C      0.461750000000     0.792150000000     0.037750000000    -0.0965325  
C486     C      0.454080000000     0.815520000000     0.031990000000     0.0181373  
C487     C      0.460010000000     0.847460000000     0.092130000000     0.0210541  
C488     C      0.465910000000     0.871460000000     0.086870000000    -0.0643336  
C489     C      0.465430000000     0.889000000000     0.104860000000     0.0184462  
C490     C      0.459240000000     0.882900000000     0.128570000000    -0.0991866  
C491     C      0.953130000000     0.858960000000     0.133770000000     0.0182535  
C492     C      0.953380000000     0.841520000000     0.115770000000    -0.064942   
C493     C      0.967930000000     0.579030000000     0.115660000000    -0.0650948  
C494     C      0.960680000000     0.573270000000     0.092150000000     0.0208881  
C495     C      0.454090000000     0.549420000000     0.087010000000    -0.0644924  
C496     C      0.454500000000     0.531870000000     0.104990000000     0.0184685  
C497     C      0.961290000000     0.537810000000     0.128580000000    -0.0994651  
C498     C      0.968090000000     0.561580000000     0.133650000000     0.0184061  
C499     C      0.459840000000     0.592180000000     0.073240000000     0.020846   
C500     C      0.952600000000     0.615690000000     0.079010000000    -0.0651568  
C501     C      0.452430000000     0.633680000000     0.061550000000     0.018275   
C502     C      0.459200000000     0.628600000000     0.037780000000    -0.0992617  
C503     C      0.465990000000     0.605010000000     0.031830000000     0.0182145  
C504     C      0.466420000000     0.587040000000     0.049390000000    -0.0644241  
C505     C      0.960940000000     0.519530000000     0.647920000000     0.333946   
C506     C      0.019380000000     0.459810000000     0.772700000000     0.33397    
C507     C      0.019430000000     0.460340000000     0.647930000000     0.331278   
C508     C      0.958800000000     0.519520000000     0.772730000000     0.335412   
C509     C      0.401020000000     0.960980000000     0.772700000000     0.334333   
C510     C      0.459530000000     0.901190000000     0.647920000000     0.33381    
C511     C      0.461540000000     0.901200000000     0.772740000000     0.335336   
C512     C      0.400980000000     0.960330000000     0.647930000000     0.331962   
C513     C      0.459530000000     0.647940000000     0.519490000000     0.333851   
C514     C      0.400940000000     0.772730000000     0.459370000000     0.334387   
C515     C      0.400900000000     0.647980000000     0.460760000000     0.332131   
C516     C      0.461500000000     0.772780000000     0.519480000000     0.335257   
C517     C      0.019340000000     0.772740000000     0.961360000000     0.333911   
C518     C      0.960710000000     0.647950000000     0.901170000000     0.333977   
C519     C      0.958850000000     0.772790000000     0.901180000000     0.335308   
C520     C      0.019380000000     0.647970000000     0.959840000000     0.331422   
C521     C      0.272570000000     0.519470000000     0.461410000000     0.334185   
C522     C      0.147780000000     0.459800000000     0.519460000000     0.334611   
C523     C      0.272570000000     0.460290000000     0.519510000000     0.332012   
C524     C      0.147730000000     0.519460000000     0.458490000000     0.335711   
C525     C      0.147780000000     0.960800000000     0.901110000000     0.334485   
C526     C      0.272570000000     0.901200000000     0.959130000000     0.334336   
C527     C      0.147730000000     0.901200000000     0.962130000000     0.335659   
C528     C      0.272570000000     0.960430000000     0.901070000000     0.331947   
C529     C      0.304810000000     0.841880000000     0.450780000000    -0.0650358  
C530     C      0.328340000000     0.847480000000     0.958100000000     0.0213011  
C531     C      0.333510000000     0.871190000000     0.965170000000    -0.0645797  
C532     C      0.315530000000     0.888740000000     0.965190000000     0.018699   
C533     C      0.291910000000     0.882930000000     0.958360000000    -0.0994781  
C534     C      0.286820000000     0.859320000000     0.451060000000     0.018785   
C535     C      0.347200000000     0.828500000000     0.458680000000     0.0211868  
C536     C      0.341330000000     0.804920000000     0.465570000000    -0.0642998  
C537     C      0.358760000000     0.786910000000     0.465720000000     0.0189794  
C538     C      0.382620000000     0.792050000000     0.459290000000    -0.0974796  
C539     C      0.388660000000     0.815680000000     0.952760000000     0.019442   
C540     C      0.371120000000     0.833680000000     0.952340000000    -0.063852   
C541     C      0.341470000000     0.615560000000     0.953980000000    -0.0635262  
C542     C      0.347190000000     0.592170000000     0.461610000000     0.0203037  
C543     C      0.370950000000     0.587180000000     0.468630000000    -0.063771   
C544     C      0.388490000000     0.605190000000     0.468160000000     0.01802    
C545     C      0.382600000000     0.628640000000     0.460870000000    -0.097804   
C546     C      0.358890000000     0.633570000000     0.953740000000     0.0161243  
C547     C      0.328330000000     0.573210000000     0.462270000000     0.0212861  
C548     C      0.304690000000     0.578960000000     0.969070000000    -0.065145   
C549     C      0.286700000000     0.561510000000     0.968860000000     0.0186573  
C550     C      0.291900000000     0.537750000000     0.462130000000    -0.099475   
C551     C      0.315640000000     0.531810000000     0.455820000000     0.0186264  
C552     C      0.333610000000     0.549360000000     0.455790000000    -0.0645605  
C553     C      0.086960000000     0.871040000000     0.455080000000    -0.0638658  
C554     C      0.091890000000     0.847530000000     0.962920000000     0.0215845  
C555     C      0.115180000000     0.842120000000     0.971080000000    -0.0644717  
C556     C      0.133190000000     0.859550000000     0.970900000000     0.0202716  
C557     C      0.128350000000     0.882970000000     0.962810000000    -0.0968165  
C558     C      0.104950000000     0.888590000000     0.455130000000     0.0186401  
C559     C      0.073060000000     0.828550000000     0.962260000000     0.0212609  
C560     C      0.048990000000     0.833840000000     0.467910000000    -0.0637858  
C561     C      0.031470000000     0.815830000000     0.467430000000     0.0191675  
C562     C      0.037660000000     0.792060000000     0.961500000000    -0.0972829  
C563     C      0.061670000000     0.786820000000     0.955750000000     0.0188136  
C564     C      0.079090000000     0.804840000000     0.955990000000    -0.0639858  
C565     C      0.078980000000     0.615650000000     0.965730000000    -0.0635187  
C566     C      0.073070000000     0.592130000000     0.958710000000     0.0205013  
C567     C      0.049140000000     0.587010000000     0.452400000000    -0.0637312  
C568     C      0.031620000000     0.605030000000     0.452940000000     0.0178783  
C569     C      0.037680000000     0.628620000000     0.959640000000    -0.0975054  
C570     C      0.061570000000     0.633670000000     0.966070000000     0.0160725  
C571     C      0.091900000000     0.573160000000     0.457940000000     0.0215387  
C572     C      0.115310000000     0.578740000000     0.950260000000    -0.0646928  
C573     C      0.133310000000     0.561300000000     0.950340000000     0.0201476  
C574     C      0.128350000000     0.537710000000     0.457860000000    -0.0968558  
C575     C      0.104830000000     0.531940000000     0.465060000000     0.0184611  
C576     C      0.086840000000     0.549490000000     0.465180000000    -0.0639362  
C577     C      0.371220000000     0.966760000000     0.833800000000    -0.0640603  
C578     C      0.347300000000     0.960560000000     0.828480000000     0.0215826  
C579     C      0.341430000000     0.454150000000     0.804770000000    -0.0642016  
C580     C      0.358850000000     0.454350000000     0.786760000000     0.0190136  
C581     C      0.382710000000     0.960700000000     0.792020000000    -0.0974643  
C582     C      0.388760000000     0.966720000000     0.815790000000     0.0194796  
C583     C      0.328400000000     0.960950000000     0.847400000000     0.020691   
C584     C      0.333400000000     0.953410000000     0.871000000000    -0.0637656  
C585     C      0.315390000000     0.953430000000     0.888530000000     0.0182314  
C586     C      0.291910000000     0.960780000000     0.882790000000    -0.0978002  
C587     C      0.286980000000     0.468470000000     0.859260000000     0.0164363  
C588     C      0.305000000000     0.468690000000     0.841860000000    -0.0635142  
C589     C      0.078820000000     0.467400000000     0.804870000000    -0.0641458  
C590     C      0.073100000000     0.460440000000     0.828470000000     0.0214806  
C591     C      0.049320000000     0.953620000000     0.833670000000    -0.0638813  
C592     C      0.031780000000     0.953600000000     0.815670000000     0.0194516  
C593     C      0.037690000000     0.460160000000     0.792010000000    -0.0974487  
C594     C      0.061400000000     0.467110000000     0.786860000000     0.019262   
C595     C      0.092020000000     0.960140000000     0.847390000000     0.0216093  
C596     C      0.115620000000     0.453170000000     0.841690000000    -0.0641751  
C597     C      0.133630000000     0.453470000000     0.859110000000     0.0194333  
C598     C      0.128470000000     0.960430000000     0.882810000000    -0.0976261  
C599     C      0.104810000000     0.967000000000     0.888700000000     0.0197304  
C600     C      0.086810000000     0.966970000000     0.871160000000    -0.0639909  
C601     C      0.049490000000     0.967390000000     0.587100000000    -0.0638925  
C602     C      0.073100000000     0.459860000000     0.592100000000     0.0206456  
C603     C      0.078650000000     0.452140000000     0.615490000000    -0.0634449  
C604     C      0.061250000000     0.452350000000     0.633520000000     0.0162954  
C605     C      0.037710000000     0.460020000000     0.628590000000    -0.0977414  
C606     C      0.031960000000     0.967360000000     0.605120000000     0.0181699  
C607     C      0.092010000000     0.460260000000     0.573190000000     0.0215882  
C608     C      0.086690000000     0.954040000000     0.549280000000    -0.0640477  
C609     C      0.104690000000     0.954070000000     0.531740000000     0.0195963  
C610     C      0.128470000000     0.460110000000     0.537770000000    -0.0976948  
C611     C      0.133730000000     0.466470000000     0.561620000000     0.0192538  
C612     C      0.115730000000     0.466690000000     0.579050000000    -0.0643677  
C613     C      0.371060000000     0.453640000000     0.586970000000    -0.0639145  
C614     C      0.347290000000     0.960530000000     0.592100000000     0.02065    
C615     C      0.341570000000     0.967730000000     0.615620000000    -0.0636113  
C616     C      0.358970000000     0.967620000000     0.633630000000     0.0163198  
C617     C      0.382680000000     0.960570000000     0.628590000000    -0.0977474  
C618     C      0.388590000000     0.453750000000     0.604990000000     0.0180075  
C619     C      0.328390000000     0.460040000000     0.573190000000     0.0207721  
C620     C      0.333530000000     0.466950000000     0.549430000000    -0.0641125  
C621     C      0.315510000000     0.466850000000     0.531910000000     0.0182286  
C622     C      0.291910000000     0.460020000000     0.537800000000    -0.0980061  
C623     C      0.286860000000     0.952940000000     0.561490000000     0.0164492  
C624     C      0.304870000000     0.952820000000     0.578910000000    -0.0638264  
C625     C      0.466650000000     0.549570000000     0.833460000000    -0.0637716  
C626     C      0.959280000000     0.573240000000     0.828540000000     0.021188   
C627     C      0.951190000000     0.578820000000     0.805270000000    -0.0646088  
C628     C      0.950940000000     0.561370000000     0.787270000000     0.0199081  
C629     C      0.958520000000     0.537780000000     0.792110000000    -0.0967089  
C630     C      0.466170000000     0.532020000000     0.815480000000     0.0184322  
C631     C      0.960210000000     0.592160000000     0.847430000000     0.0211377  
C632     C      0.454320000000     0.586890000000     0.871430000000    -0.0644067  
C633     C      0.454800000000     0.604880000000     0.888970000000     0.0184852  
C634     C      0.960980000000     0.628600000000     0.882870000000    -0.0992363  
C635     C      0.967090000000     0.633800000000     0.858940000000     0.018351   
C636     C      0.966840000000     0.615800000000     0.841490000000    -0.0650087  
C637     C      0.468230000000     0.841720000000     0.805160000000    -0.0644949  
C638     C      0.460730000000     0.847500000000     0.828580000000     0.0213076  
C639     C      0.954080000000     0.871350000000     0.833630000000    -0.0637672  
C640     C      0.954650000000     0.888880000000     0.815640000000     0.0184551  
C641     C      0.461720000000     0.882940000000     0.792130000000    -0.0967065  
C642     C      0.468610000000     0.859160000000     0.787160000000     0.0198616  
C643     C      0.959670000000     0.828610000000     0.847470000000     0.0214171  
C644     C      0.452160000000     0.805200000000     0.841690000000    -0.0645899  
C645     C      0.451770000000     0.787200000000     0.859140000000     0.0199038  
C646     C      0.958680000000     0.792170000000     0.882910000000    -0.0967249  
C647     C      0.965760000000     0.815680000000     0.888850000000     0.0184154  
C648     C      0.966340000000     0.833670000000     0.871310000000    -0.0638016  
C649     C      0.453590000000     0.833500000000     0.549540000000    -0.0638142  
C650     C      0.460950000000     0.828580000000     0.573210000000     0.0211609  
C651     C      0.969050000000     0.805310000000     0.578790000000    -0.064539   
C652     C      0.969320000000     0.787310000000     0.561340000000     0.0198796  
C653     C      0.461750000000     0.792150000000     0.537750000000    -0.0967284  
C654     C      0.454080000000     0.815520000000     0.531990000000     0.0183223  
C655     C      0.460010000000     0.847460000000     0.592130000000     0.021067   
C656     C      0.465910000000     0.871460000000     0.586870000000    -0.0643282  
C657     C      0.465430000000     0.889000000000     0.604860000000     0.0184814  
C658     C      0.459240000000     0.882900000000     0.628570000000    -0.0992505  
C659     C      0.953130000000     0.858960000000     0.633770000000     0.0182934  
C660     C      0.953380000000     0.841520000000     0.615770000000    -0.0649478  
C661     C      0.967930000000     0.579030000000     0.615660000000    -0.0650851  
C662     C      0.960680000000     0.573270000000     0.592150000000     0.0208938  
C663     C      0.454090000000     0.549420000000     0.587010000000    -0.0644795  
C664     C      0.454500000000     0.531870000000     0.604990000000     0.0184817  
C665     C      0.961290000000     0.537810000000     0.628580000000    -0.0994605  
C666     C      0.968090000000     0.561580000000     0.633650000000     0.0184101  
C667     C      0.459840000000     0.592180000000     0.573240000000     0.0208871  
C668     C      0.952600000000     0.615690000000     0.579010000000    -0.0651817  
C669     C      0.452430000000     0.633680000000     0.561550000000     0.0183771  
C670     C      0.459200000000     0.628600000000     0.537780000000    -0.0993867  
C671     C      0.465990000000     0.605010000000     0.531830000000     0.0183549  
C672     C      0.466420000000     0.587040000000     0.549390000000    -0.0644077  
C673     C      0.460940000000     0.019530000000     0.147920000000     0.333186   
C674     C      0.519380000000     0.959810000000     0.272700000000     0.334651   
C675     C      0.519430000000     0.960340000000     0.147930000000     0.332218   
C676     C      0.458800000000     0.019520000000     0.272730000000     0.334649   
C677     C      0.901020000000     0.460980000000     0.272700000000     0.334297   
C678     C      0.959530000000     0.401190000000     0.147930000000     0.334077   
C679     C      0.961540000000     0.401200000000     0.272740000000     0.335336   
C680     C      0.900980000000     0.460330000000     0.147930000000     0.331957   
C681     C      0.959530000000     0.147950000000     0.019490000000     0.33332    
C682     C      0.900940000000     0.272730000000     0.959370000000     0.33438    
C683     C      0.900900000000     0.147980000000     0.960760000000     0.332141   
C684     C      0.961490000000     0.272780000000     0.019480000000     0.334533   
C685     C      0.519340000000     0.272740000000     0.461360000000     0.33432    
C686     C      0.460710000000     0.147950000000     0.401170000000     0.333946   
C687     C      0.458850000000     0.272790000000     0.401180000000     0.335168   
C688     C      0.519380000000     0.147970000000     0.459840000000     0.332056   
C689     C      0.772570000000     0.019470000000     0.961410000000     0.333408   
C690     C      0.647780000000     0.959800000000     0.019460000000     0.333959   
C691     C      0.772570000000     0.960280000000     0.019500000000     0.331489   
C692     C      0.647730000000     0.019460000000     0.958490000000     0.334987   
C693     C      0.647780000000     0.460800000000     0.401110000000     0.334451   
C694     C      0.772570000000     0.401200000000     0.459130000000     0.334391   
C695     C      0.647730000000     0.401200000000     0.462130000000     0.335638   
C696     C      0.772570000000     0.460430000000     0.401070000000     0.331921   
C697     C      0.804810000000     0.341880000000     0.950780000000    -0.0650364  
C698     C      0.828340000000     0.347480000000     0.458100000000     0.0213071  
C699     C      0.833510000000     0.371190000000     0.465170000000    -0.0646391  
C700     C      0.815530000000     0.388740000000     0.465190000000     0.0187242  
C701     C      0.791910000000     0.382940000000     0.458360000000    -0.0995937  
C702     C      0.786820000000     0.359320000000     0.951060000000     0.0188002  
C703     C      0.847200000000     0.328510000000     0.958680000000     0.0211084  
C704     C      0.841330000000     0.304920000000     0.965570000000    -0.0641958  
C705     C      0.858760000000     0.286910000000     0.965720000000     0.0189369  
C706     C      0.882620000000     0.292050000000     0.959290000000    -0.0973941  
C707     C      0.888660000000     0.315680000000     0.452760000000     0.0193665  
C708     C      0.871120000000     0.333680000000     0.452340000000    -0.0638268  
C709     C      0.841470000000     0.115560000000     0.453980000000    -0.0635746  
C710     C      0.847190000000     0.092170000000     0.961610000000     0.0203111  
C711     C      0.870950000000     0.087180000000     0.968630000000    -0.0637682  
C712     C      0.888490000000     0.105190000000     0.968160000000     0.0180318  
C713     C      0.882600000000     0.128640000000     0.960870000000    -0.0977527  
C714     C      0.858890000000     0.133570000000     0.453750000000     0.0161338  
C715     C      0.828330000000     0.073210000000     0.962270000000     0.0212781  
C716     C      0.804690000000     0.078960000000     0.469070000000    -0.0651172  
C717     C      0.786700000000     0.061510000000     0.468870000000     0.018418   
C718     C      0.791910000000     0.037750000000     0.962130000000    -0.0992576  
C719     C      0.815630000000     0.031810000000     0.955820000000     0.0185306  
C720     C      0.833620000000     0.049360000000     0.955790000000    -0.0645995  
C721     C      0.586960000000     0.371040000000     0.955090000000    -0.0637677  
C722     C      0.591890000000     0.347530000000     0.462920000000     0.0215711  
C723     C      0.615180000000     0.342120000000     0.471080000000    -0.0645142  
C724     C      0.633190000000     0.359550000000     0.470900000000     0.0202648  
C725     C      0.628350000000     0.382970000000     0.462810000000    -0.0968495  
C726     C      0.604950000000     0.388590000000     0.955130000000     0.0186479  
C727     C      0.573060000000     0.328550000000     0.462250000000     0.0213153  
C728     C      0.548990000000     0.333840000000     0.967910000000    -0.0638053  
C729     C      0.531470000000     0.315820000000     0.967430000000     0.0194121  
C730     C      0.537660000000     0.292060000000     0.461500000000    -0.0974323  
C731     C      0.561670000000     0.286830000000     0.455750000000     0.0189542  
C732     C      0.579090000000     0.304840000000     0.455980000000    -0.0640857  
C733     C      0.578980000000     0.115650000000     0.465730000000    -0.0635832  
C734     C      0.573070000000     0.092130000000     0.458710000000     0.0205295  
C735     C      0.549140000000     0.087010000000     0.952400000000    -0.0637377  
C736     C      0.531620000000     0.105030000000     0.952940000000     0.0180415  
C737     C      0.537680000000     0.128620000000     0.459640000000    -0.0976772  
C738     C      0.561570000000     0.133670000000     0.466070000000     0.0161534  
C739     C      0.591900000000     0.073160000000     0.957940000000     0.0215101  
C740     C      0.615310000000     0.078740000000     0.450260000000    -0.0646706  
C741     C      0.633310000000     0.061300000000     0.450340000000     0.020021   
C742     C      0.628350000000     0.037710000000     0.957860000000    -0.0966831  
C743     C      0.604830000000     0.031940000000     0.965060000000     0.0183444  
C744     C      0.586840000000     0.049490000000     0.965180000000    -0.0638919  
C745     C      0.871220000000     0.466760000000     0.333800000000    -0.0640994  
C746     C      0.847300000000     0.460560000000     0.328480000000     0.02155    
C747     C      0.841430000000     0.954150000000     0.304760000000    -0.0642613  
C748     C      0.858850000000     0.954350000000     0.286760000000     0.0191725  
C749     C      0.882710000000     0.460700000000     0.292020000000    -0.0974925  
C750     C      0.888760000000     0.466720000000     0.315790000000     0.0194746  
C751     C      0.828400000000     0.460950000000     0.347400000000     0.0206771  
C752     C      0.833400000000     0.453410000000     0.371000000000    -0.0638214  
C753     C      0.815390000000     0.453430000000     0.388530000000     0.0182192  
C754     C      0.791910000000     0.460780000000     0.382790000000    -0.0978425  
C755     C      0.786980000000     0.968470000000     0.359260000000     0.0164636  
C756     C      0.805000000000     0.968690000000     0.341860000000    -0.0634743  
C757     C      0.578820000000     0.967410000000     0.304870000000    -0.0641548  
C758     C      0.573100000000     0.960440000000     0.328470000000     0.0215637  
C759     C      0.549320000000     0.453620000000     0.333670000000    -0.0639229  
C760     C      0.531780000000     0.453600000000     0.315670000000     0.0195965  
C761     C      0.537690000000     0.960160000000     0.292010000000    -0.0975344  
C762     C      0.561400000000     0.967110000000     0.286860000000     0.019415   
C763     C      0.592020000000     0.460130000000     0.347390000000     0.0215893  
C764     C      0.615620000000     0.953170000000     0.341690000000    -0.0641466  
C765     C      0.633630000000     0.953470000000     0.359110000000     0.019465   
C766     C      0.628470000000     0.460430000000     0.382810000000    -0.0976481  
C767     C      0.604810000000     0.467000000000     0.388700000000     0.0197078  
C768     C      0.586810000000     0.466970000000     0.371160000000    -0.0640051  
C769     C      0.549490000000     0.467390000000     0.087100000000    -0.0639508  
C770     C      0.573100000000     0.959860000000     0.092100000000     0.0207442  
C771     C      0.578650000000     0.952140000000     0.115490000000    -0.0634835  
C772     C      0.561250000000     0.952350000000     0.133520000000     0.0164689  
C773     C      0.537710000000     0.960020000000     0.128590000000    -0.0979297  
C774     C      0.531960000000     0.467360000000     0.105120000000     0.0182732  
C775     C      0.592010000000     0.960260000000     0.073190000000     0.021546   
C776     C      0.586690000000     0.454040000000     0.049280000000    -0.064074   
C777     C      0.604690000000     0.454080000000     0.031740000000     0.0194667  
C778     C      0.628470000000     0.960110000000     0.037770000000    -0.0974834  
C779     C      0.633730000000     0.966470000000     0.061620000000     0.0191484  
C780     C      0.615730000000     0.966680000000     0.079050000000    -0.0642567  
C781     C      0.871060000000     0.953640000000     0.086970000000    -0.0640218  
C782     C      0.847290000000     0.460540000000     0.092100000000     0.0206297  
C783     C      0.841570000000     0.467730000000     0.115620000000    -0.0636885  
C784     C      0.858980000000     0.467620000000     0.133630000000     0.0163438  
C785     C      0.882680000000     0.460570000000     0.128590000000    -0.0978428  
C786     C      0.888590000000     0.953750000000     0.104990000000     0.0181153  
C787     C      0.828390000000     0.960040000000     0.073190000000     0.0207397  
C788     C      0.833530000000     0.966950000000     0.049430000000    -0.0640564  
C789     C      0.815510000000     0.966850000000     0.031910000000     0.0180837  
C790     C      0.791910000000     0.960020000000     0.037800000000    -0.0977811  
C791     C      0.786860000000     0.452950000000     0.061490000000     0.0163367  
C792     C      0.804870000000     0.452830000000     0.078910000000    -0.0638393  
C793     C      0.966650000000     0.049570000000     0.333460000000    -0.063751   
C794     C      0.459280000000     0.073240000000     0.328540000000     0.0211379  
C795     C      0.451190000000     0.078820000000     0.305270000000    -0.0646525  
C796     C      0.450940000000     0.061370000000     0.287280000000     0.0198647  
C797     C      0.458520000000     0.037780000000     0.292110000000    -0.0966224  
C798     C      0.966170000000     0.032020000000     0.315480000000     0.0183083  
C799     C      0.460210000000     0.092160000000     0.347430000000     0.0210914  
C800     C      0.954320000000     0.086890000000     0.371430000000    -0.0643746  
C801     C      0.954800000000     0.104870000000     0.388970000000     0.018445   
C802     C      0.460980000000     0.128600000000     0.382870000000    -0.0992418  
C803     C      0.467090000000     0.133800000000     0.358940000000     0.0183057  
C804     C      0.466840000000     0.115800000000     0.341490000000    -0.0650297  
C805     C      0.968240000000     0.341720000000     0.305160000000    -0.0644344  
C806     C      0.960730000000     0.347500000000     0.328580000000     0.0213028  
C807     C      0.454080000000     0.371350000000     0.333630000000    -0.0637475  
C808     C      0.454650000000     0.388890000000     0.315640000000     0.0183414  
C809     C      0.961720000000     0.382940000000     0.292130000000    -0.0966099  
C810     C      0.968610000000     0.359160000000     0.287160000000     0.0198693  
C811     C      0.459670000000     0.328610000000     0.347470000000     0.0213827  
C812     C      0.952160000000     0.305200000000     0.341690000000    -0.064559   
C813     C      0.951770000000     0.287200000000     0.359140000000     0.0198992  
C814     C      0.458680000000     0.292170000000     0.382910000000    -0.0966742  
C815     C      0.465760000000     0.315680000000     0.388850000000     0.0183619  
C816     C      0.466340000000     0.333670000000     0.371310000000    -0.0638091  
C817     C      0.953590000000     0.333500000000     0.049540000000    -0.0637825  
C818     C      0.960950000000     0.328570000000     0.073210000000     0.0211564  
C819     C      0.469050000000     0.305310000000     0.078790000000    -0.0645536  
C820     C      0.469320000000     0.287310000000     0.061340000000     0.0197272  
C821     C      0.961750000000     0.292150000000     0.037750000000    -0.0965147  
C822     C      0.954080000000     0.315520000000     0.031990000000     0.0181719  
C823     C      0.960010000000     0.347460000000     0.092130000000     0.0211105  
C824     C      0.965910000000     0.371460000000     0.086870000000    -0.0643343  
C825     C      0.965430000000     0.389000000000     0.104860000000     0.0185195  
C826     C      0.959240000000     0.382900000000     0.128570000000    -0.0992019  
C827     C      0.453130000000     0.358960000000     0.133770000000     0.0182707  
C828     C      0.453380000000     0.341510000000     0.115770000000    -0.0650333  
C829     C      0.467930000000     0.079030000000     0.115660000000    -0.0651116  
C830     C      0.460680000000     0.073270000000     0.092150000000     0.0208263  
C831     C      0.954080000000     0.049420000000     0.087010000000    -0.0644955  
C832     C      0.954500000000     0.031870000000     0.104990000000     0.0183473  
C833     C      0.461290000000     0.037810000000     0.128580000000    -0.0993628  
C834     C      0.468090000000     0.061580000000     0.133650000000     0.0182763  
C835     C      0.959840000000     0.092180000000     0.073240000000     0.0208275  
C836     C      0.452600000000     0.115690000000     0.079010000000    -0.0651152  
C837     C      0.952430000000     0.133690000000     0.061550000000     0.0181897  
C838     C      0.959200000000     0.128600000000     0.037780000000    -0.0991329  
C839     C      0.965990000000     0.105010000000     0.031830000000     0.0181859  
C840     C      0.966420000000     0.087040000000     0.049390000000    -0.0643811  
C841     C      0.460940000000     0.019530000000     0.647920000000     0.333441   
C842     C      0.519380000000     0.959810000000     0.772700000000     0.334647   
C843     C      0.519430000000     0.960340000000     0.647930000000     0.332222   
C844     C      0.458800000000     0.019520000000     0.772730000000     0.334628   
C845     C      0.901020000000     0.460980000000     0.772700000000     0.334296   
C846     C      0.959530000000     0.401190000000     0.647920000000     0.333968   
C847     C      0.961540000000     0.401200000000     0.772740000000     0.335334   
C848     C      0.900980000000     0.460330000000     0.647930000000     0.331959   
C849     C      0.959530000000     0.147950000000     0.519490000000     0.333965   
C850     C      0.900940000000     0.272730000000     0.459370000000     0.334362   
C851     C      0.900900000000     0.147980000000     0.460760000000     0.332124   
C852     C      0.961500000000     0.272780000000     0.519480000000     0.335303   
C853     C      0.519340000000     0.272740000000     0.961360000000     0.334339   
C854     C      0.460710000000     0.147950000000     0.901170000000     0.333941   
C855     C      0.458850000000     0.272790000000     0.901180000000     0.335165   
C856     C      0.519380000000     0.147970000000     0.959840000000     0.332075   
C857     C      0.772570000000     0.019470000000     0.461410000000     0.333379   
C858     C      0.647780000000     0.959800000000     0.519460000000     0.334607   
C859     C      0.772570000000     0.960280000000     0.519500000000     0.332116   
C860     C      0.647730000000     0.019460000000     0.458490000000     0.33497    
C861     C      0.647780000000     0.460800000000     0.901110000000     0.334447   
C862     C      0.772570000000     0.401200000000     0.959130000000     0.334415   
C863     C      0.647730000000     0.401200000000     0.962130000000     0.335658   
C864     C      0.772570000000     0.460430000000     0.901070000000     0.331916   
C865     C      0.804810000000     0.341880000000     0.450780000000    -0.0650547  
C866     C      0.828340000000     0.347480000000     0.958100000000     0.0213317  
C867     C      0.833510000000     0.371190000000     0.965170000000    -0.0646191  
C868     C      0.815530000000     0.388740000000     0.965190000000     0.0187714  
C869     C      0.791910000000     0.382940000000     0.958370000000    -0.0995743  
C870     C      0.786820000000     0.359320000000     0.451060000000     0.0187945  
C871     C      0.847200000000     0.328510000000     0.458680000000     0.0210905  
C872     C      0.841330000000     0.304920000000     0.465570000000    -0.0642315  
C873     C      0.858760000000     0.286910000000     0.465720000000     0.0189328  
C874     C      0.882620000000     0.292050000000     0.459290000000    -0.0974271  
C875     C      0.888660000000     0.315680000000     0.952760000000     0.0193864  
C876     C      0.871120000000     0.333680000000     0.952340000000    -0.0638032  
C877     C      0.841470000000     0.115560000000     0.953980000000    -0.0635388  
C878     C      0.847190000000     0.092170000000     0.461610000000     0.0202853  
C879     C      0.870950000000     0.087180000000     0.468630000000    -0.0637818  
C880     C      0.888490000000     0.105190000000     0.468160000000     0.0180019  
C881     C      0.882600000000     0.128640000000     0.460870000000    -0.0978063  
C882     C      0.858890000000     0.133570000000     0.953740000000     0.0161151  
C883     C      0.828330000000     0.073210000000     0.462270000000     0.0212536  
C884     C      0.804690000000     0.078960000000     0.969070000000    -0.0651027  
C885     C      0.786700000000     0.061510000000     0.968860000000     0.0184755  
C886     C      0.791910000000     0.037750000000     0.462130000000    -0.0992802  
C887     C      0.815630000000     0.031810000000     0.455820000000     0.018512   
C888     C      0.833620000000     0.049360000000     0.455790000000    -0.0646408  
C889     C      0.586960000000     0.371040000000     0.455080000000    -0.063824   
C890     C      0.591890000000     0.347530000000     0.962920000000     0.0215796  
C891     C      0.615180000000     0.342120000000     0.971080000000    -0.0644514  
C892     C      0.633190000000     0.359550000000     0.970900000000     0.0202742  
C893     C      0.628350000000     0.382970000000     0.962810000000    -0.0968036  
C894     C      0.604950000000     0.388590000000     0.455130000000     0.0186446  
C895     C      0.573060000000     0.328550000000     0.962260000000     0.0213376  
C896     C      0.548990000000     0.333840000000     0.467910000000    -0.0638345  
C897     C      0.531470000000     0.315820000000     0.467430000000     0.0193879  
C898     C      0.537660000000     0.292060000000     0.961500000000    -0.0973927  
C899     C      0.561670000000     0.286830000000     0.955750000000     0.0189408  
C900     C      0.579090000000     0.304840000000     0.955990000000    -0.064038   
C901     C      0.578980000000     0.115650000000     0.965730000000    -0.0635572  
C902     C      0.573070000000     0.092130000000     0.958710000000     0.0205519  
C903     C      0.549140000000     0.087010000000     0.452400000000    -0.0637584  
C904     C      0.531620000000     0.105030000000     0.452940000000     0.0180181  
C905     C      0.537680000000     0.128620000000     0.959640000000    -0.0976478  
C906     C      0.561570000000     0.133670000000     0.966070000000     0.0161794  
C907     C      0.591900000000     0.073160000000     0.457940000000     0.0214893  
C908     C      0.615310000000     0.078740000000     0.950260000000    -0.0646574  
C909     C      0.633310000000     0.061300000000     0.950340000000     0.0200354  
C910     C      0.628350000000     0.037710000000     0.457860000000    -0.0967055  
C911     C      0.604830000000     0.031940000000     0.465060000000     0.0183182  
C912     C      0.586840000000     0.049490000000     0.465180000000    -0.0639192  
C913     C      0.871220000000     0.466760000000     0.833800000000    -0.0641144  
C914     C      0.847300000000     0.460560000000     0.828480000000     0.0215747  
C915     C      0.841430000000     0.954150000000     0.804760000000    -0.0642487  
C916     C      0.858850000000     0.954350000000     0.786760000000     0.019136   
C917     C      0.882710000000     0.460700000000     0.792020000000    -0.0974982  
C918     C      0.888760000000     0.466720000000     0.815790000000     0.0194787  
C919     C      0.828400000000     0.460950000000     0.847400000000     0.0206647  
C920     C      0.833400000000     0.453410000000     0.871000000000    -0.0638169  
C921     C      0.815390000000     0.453430000000     0.888530000000     0.0182148  
C922     C      0.791910000000     0.460780000000     0.882790000000    -0.0978424  
C923     C      0.786980000000     0.968470000000     0.859260000000     0.0164601  
C924     C      0.805000000000     0.968690000000     0.841860000000    -0.0634785  
C925     C      0.578820000000     0.967400000000     0.804870000000    -0.0641303  
C926     C      0.573100000000     0.960440000000     0.828470000000     0.0215564  
C927     C      0.549320000000     0.453620000000     0.833670000000    -0.063924   
C928     C      0.531780000000     0.453600000000     0.815670000000     0.0195947  
C929     C      0.537690000000     0.960160000000     0.792010000000    -0.0975298  
C930     C      0.561400000000     0.967110000000     0.786860000000     0.0193975  
C931     C      0.592020000000     0.460130000000     0.847390000000     0.0215867  
C932     C      0.615620000000     0.953170000000     0.841690000000    -0.06415    
C933     C      0.633630000000     0.953470000000     0.859110000000     0.0194615  
C934     C      0.628470000000     0.460430000000     0.882810000000    -0.0976479  
C935     C      0.604810000000     0.467000000000     0.888700000000     0.0197061  
C936     C      0.586810000000     0.466970000000     0.871160000000    -0.0640042  
C937     C      0.549490000000     0.467390000000     0.587100000000    -0.0639377  
C938     C      0.573100000000     0.959860000000     0.592100000000     0.0207553  
C939     C      0.578650000000     0.952130000000     0.615490000000    -0.0635016  
C940     C      0.561250000000     0.952350000000     0.633520000000     0.0164886  
C941     C      0.537710000000     0.960020000000     0.628590000000    -0.0979329  
C942     C      0.531960000000     0.467360000000     0.605120000000     0.0182881  
C943     C      0.592010000000     0.960260000000     0.573190000000     0.0215975  
C944     C      0.586690000000     0.454040000000     0.549280000000    -0.0640804  
C945     C      0.604690000000     0.454080000000     0.531740000000     0.0196167  
C946     C      0.628470000000     0.960110000000     0.537770000000    -0.0976074  
C947     C      0.633730000000     0.966470000000     0.561620000000     0.0192567  
C948     C      0.615730000000     0.966680000000     0.579050000000    -0.0642792  
C949     C      0.871060000000     0.953640000000     0.586970000000    -0.0639256  
C950     C      0.847290000000     0.460540000000     0.592100000000     0.0206572  
C951     C      0.841570000000     0.467730000000     0.615620000000    -0.0636894  
C952     C      0.858980000000     0.467620000000     0.633630000000     0.0163528  
C953     C      0.882680000000     0.460570000000     0.628590000000    -0.0978425  
C954     C      0.888590000000     0.953750000000     0.604990000000     0.018091   
C955     C      0.828390000000     0.960040000000     0.573190000000     0.0207793  
C956     C      0.833530000000     0.966950000000     0.549430000000    -0.0640094  
C957     C      0.815510000000     0.966850000000     0.531900000000     0.0181402  
C958     C      0.791910000000     0.960020000000     0.537800000000    -0.0978567  
C959     C      0.786860000000     0.452940000000     0.561490000000     0.0163654  
C960     C      0.804870000000     0.452830000000     0.578910000000    -0.0637343  
C961     C      0.966650000000     0.049570000000     0.833460000000    -0.0637306  
C962     C      0.459280000000     0.073240000000     0.828540000000     0.0211083  
C963     C      0.451190000000     0.078820000000     0.805270000000    -0.0645929  
C964     C      0.450940000000     0.061370000000     0.787270000000     0.0197676  
C965     C      0.458520000000     0.037780000000     0.792110000000    -0.0965727  
C966     C      0.966170000000     0.032020000000     0.815480000000     0.0182814  
C967     C      0.460210000000     0.092160000000     0.847430000000     0.0210989  
C968     C      0.954320000000     0.086890000000     0.871430000000    -0.0643794  
C969     C      0.954800000000     0.104870000000     0.888970000000     0.0184452  
C970     C      0.460980000000     0.128600000000     0.882870000000    -0.0992439  
C971     C      0.467090000000     0.133800000000     0.858940000000     0.0183031  
C972     C      0.466840000000     0.115800000000     0.841490000000    -0.0650373  
C973     C      0.968240000000     0.341720000000     0.805160000000    -0.0644377  
C974     C      0.960730000000     0.347500000000     0.828580000000     0.0213011  
C975     C      0.454080000000     0.371350000000     0.833630000000    -0.063727   
C976     C      0.454650000000     0.388890000000     0.815640000000     0.0183292  
C977     C      0.961720000000     0.382940000000     0.792130000000    -0.0966131  
C978     C      0.968610000000     0.359160000000     0.787160000000     0.0198665  
C979     C      0.459670000000     0.328610000000     0.847470000000     0.0213933  
C980     C      0.952160000000     0.305200000000     0.841690000000    -0.0645618  
C981     C      0.951770000000     0.287200000000     0.859140000000     0.0198945  
C982     C      0.458680000000     0.292170000000     0.882910000000    -0.0966765  
C983     C      0.465760000000     0.315680000000     0.888850000000     0.0183637  
C984     C      0.466340000000     0.333670000000     0.871310000000    -0.0638147  
C985     C      0.953590000000     0.333500000000     0.549540000000    -0.0638076  
C986     C      0.960950000000     0.328570000000     0.573210000000     0.021216   
C987     C      0.469050000000     0.305310000000     0.578790000000    -0.0645914  
C988     C      0.469320000000     0.287310000000     0.561340000000     0.0198627  
C989     C      0.961750000000     0.292150000000     0.537750000000    -0.0967079  
C990     C      0.954080000000     0.315520000000     0.531990000000     0.0183585  
C991     C      0.960010000000     0.347460000000     0.592130000000     0.0211235  
C992     C      0.965910000000     0.371460000000     0.586870000000    -0.0643294  
C993     C      0.965430000000     0.389000000000     0.604860000000     0.0185546  
C994     C      0.959240000000     0.382900000000     0.628570000000    -0.0992664  
C995     C      0.453130000000     0.358960000000     0.633770000000     0.0183105  
C996     C      0.453380000000     0.341510000000     0.615770000000    -0.0650389  
C997     C      0.467930000000     0.079030000000     0.615660000000    -0.0651297  
C998     C      0.460680000000     0.073270000000     0.592150000000     0.020855   
C999     C      0.954080000000     0.049420000000     0.587010000000    -0.0645029  
C1000    C      0.954500000000     0.031870000000     0.604990000000     0.0184024  
C1001    C      0.461290000000     0.037810000000     0.628580000000    -0.0994518  
C1002    C      0.468090000000     0.061580000000     0.633650000000     0.0183316  
C1003    C      0.959840000000     0.092180000000     0.573240000000     0.0208732  
C1004    C      0.452600000000     0.115690000000     0.579010000000    -0.0651311  
C1005    C      0.952430000000     0.133690000000     0.561550000000     0.0182944  
C1006    C      0.959200000000     0.128600000000     0.537780000000    -0.0992608  
C1007    C      0.965990000000     0.105010000000     0.531830000000     0.0183371  
C1008    C      0.966420000000     0.087040000000     0.549390000000    -0.0643885  
C1009    C      0.460940000000     0.519530000000     0.147920000000     0.333911   
C1010    C      0.519380000000     0.459810000000     0.272700000000     0.334629   
C1011    C      0.519430000000     0.460340000000     0.147930000000     0.332187   
C1012    C      0.458800000000     0.519520000000     0.272730000000     0.335411   
C1013    C      0.901020000000     0.960970000000     0.272700000000     0.334392   
C1014    C      0.959530000000     0.901190000000     0.147930000000     0.333944   
C1015    C      0.961540000000     0.901200000000     0.272740000000     0.335377   
C1016    C      0.900980000000     0.960330000000     0.147930000000     0.33198    
C1017    C      0.959530000000     0.647940000000     0.019490000000     0.333227   
C1018    C      0.900940000000     0.772730000000     0.959370000000     0.33439    
C1019    C      0.900900000000     0.647980000000     0.960760000000     0.332143   
C1020    C      0.961490000000     0.772780000000     0.019480000000     0.334529   
C1021    C      0.519340000000     0.772740000000     0.461360000000     0.334532   
C1022    C      0.460710000000     0.647950000000     0.401170000000     0.333955   
C1023    C      0.458850000000     0.772790000000     0.401180000000     0.335292   
C1024    C      0.519380000000     0.647970000000     0.459840000000     0.332055   
C1025    C      0.772570000000     0.519470000000     0.961410000000     0.334163   
C1026    C      0.647780000000     0.459800000000     0.019460000000     0.333962   
C1027    C      0.772570000000     0.460290000000     0.019500000000     0.331477   
C1028    C      0.647730000000     0.519460000000     0.958490000000     0.335708   
C1029    C      0.647780000000     0.960800000000     0.401110000000     0.334489   
C1030    C      0.772570000000     0.901200000000     0.459130000000     0.334311   
C1031    C      0.647730000000     0.901200000000     0.462120000000     0.335632   
C1032    C      0.772570000000     0.960430000000     0.401070000000     0.331949   
C1033    C      0.804810000000     0.841880000000     0.950780000000    -0.0650338  
C1034    C      0.828340000000     0.847480000000     0.458100000000     0.0212569  
C1035    C      0.833510000000     0.871190000000     0.465170000000    -0.0645909  
C1036    C      0.815530000000     0.888740000000     0.465190000000     0.0186468  
C1037    C      0.791910000000     0.882930000000     0.458360000000    -0.099499   
C1038    C      0.786820000000     0.859320000000     0.951060000000     0.0187956  
C1039    C      0.847200000000     0.828500000000     0.958680000000     0.0211591  
C1040    C      0.841330000000     0.804920000000     0.965570000000    -0.0642453  
C1041    C      0.858760000000     0.786910000000     0.965720000000     0.0189613  
C1042    C      0.882620000000     0.792050000000     0.959290000000    -0.0974292  
C1043    C      0.888660000000     0.815680000000     0.452760000000     0.0194545  
C1044    C      0.871120000000     0.833680000000     0.452340000000    -0.063959   
C1045    C      0.841470000000     0.615560000000     0.453980000000    -0.0635641  
C1046    C      0.847190000000     0.592170000000     0.961610000000     0.0203075  
C1047    C      0.870950000000     0.587180000000     0.968630000000    -0.0637486  
C1048    C      0.888490000000     0.605190000000     0.968160000000     0.0180439  
C1049    C      0.882600000000     0.628640000000     0.960870000000    -0.0977474  
C1050    C      0.858890000000     0.633570000000     0.453750000000     0.0161383  
C1051    C      0.828330000000     0.573210000000     0.962270000000     0.0213556  
C1052    C      0.804690000000     0.578960000000     0.469070000000    -0.0651478  
C1053    C      0.786700000000     0.561510000000     0.468870000000     0.0185405  
C1054    C      0.791910000000     0.537750000000     0.962130000000    -0.099437   
C1055    C      0.815630000000     0.531810000000     0.955820000000     0.0187615  
C1056    C      0.833620000000     0.549360000000     0.955790000000    -0.0646584  
C1057    C      0.586960000000     0.871040000000     0.955090000000    -0.0637949  
C1058    C      0.591890000000     0.847530000000     0.462920000000     0.0215863  
C1059    C      0.615180000000     0.842120000000     0.471080000000    -0.0645271  
C1060    C      0.633190000000     0.859550000000     0.470900000000     0.0202689  
C1061    C      0.628350000000     0.882970000000     0.462810000000    -0.0968501  
C1062    C      0.604950000000     0.888590000000     0.955130000000     0.0186629  
C1063    C      0.573060000000     0.828550000000     0.462250000000     0.0212774  
C1064    C      0.548990000000     0.833840000000     0.967910000000    -0.0637779  
C1065    C      0.531470000000     0.815830000000     0.967430000000     0.0193618  
C1066    C      0.537660000000     0.792060000000     0.461500000000    -0.0974221  
C1067    C      0.561670000000     0.786820000000     0.455740000000     0.0188758  
C1068    C      0.579090000000     0.804840000000     0.455980000000    -0.0640255  
C1069    C      0.578980000000     0.615650000000     0.465730000000    -0.0635729  
C1070    C      0.573070000000     0.592130000000     0.458710000000     0.020535   
C1071    C      0.549140000000     0.587010000000     0.952400000000    -0.0637005  
C1072    C      0.531620000000     0.605030000000     0.952940000000     0.0180386  
C1073    C      0.537680000000     0.628620000000     0.459640000000    -0.097672   
C1074    C      0.561570000000     0.633670000000     0.466070000000     0.016157   
C1075    C      0.591900000000     0.573160000000     0.957940000000     0.0215841  
C1076    C      0.615310000000     0.578740000000     0.450260000000    -0.0646995  
C1077    C      0.633310000000     0.561300000000     0.450340000000     0.0201431  
C1078    C      0.628350000000     0.537710000000     0.957860000000    -0.0968247  
C1079    C      0.604830000000     0.531940000000     0.965060000000     0.0185175  
C1080    C      0.586840000000     0.549490000000     0.965180000000    -0.0639098  
C1081    C      0.871220000000     0.966760000000     0.333800000000    -0.0640778  
C1082    C      0.847300000000     0.960560000000     0.328480000000     0.0215965  
C1083    C      0.841430000000     0.454150000000     0.304760000000    -0.0642454  
C1084    C      0.858850000000     0.454350000000     0.286760000000     0.0190851  
C1085    C      0.882710000000     0.960700000000     0.292010000000    -0.0975487  
C1086    C      0.888760000000     0.966720000000     0.315790000000     0.0195178  
C1087    C      0.828400000000     0.960950000000     0.347400000000     0.0206869  
C1088    C      0.833400000000     0.953410000000     0.371000000000    -0.0637662  
C1089    C      0.815390000000     0.953430000000     0.388530000000     0.0182311  
C1090    C      0.791910000000     0.960780000000     0.382790000000    -0.0978022  
C1091    C      0.786980000000     0.468470000000     0.359260000000     0.0164376  
C1092    C      0.805000000000     0.468690000000     0.341860000000    -0.0635147  
C1093    C      0.578820000000     0.467400000000     0.304870000000    -0.0641695  
C1094    C      0.573100000000     0.460440000000     0.328470000000     0.0215365  
C1095    C      0.549320000000     0.953620000000     0.333670000000    -0.0638906  
C1096    C      0.531780000000     0.953600000000     0.315670000000     0.0196087  
C1097    C      0.537690000000     0.460160000000     0.292010000000    -0.0975807  
C1098    C      0.561400000000     0.467110000000     0.286860000000     0.0193756  
C1099    C      0.592020000000     0.960130000000     0.347390000000     0.0216174  
C1100    C      0.615620000000     0.453170000000     0.341690000000    -0.064163   
C1101    C      0.633630000000     0.453470000000     0.359110000000     0.0194419  
C1102    C      0.628470000000     0.960430000000     0.382810000000    -0.0976207  
C1103    C      0.604810000000     0.967000000000     0.388700000000     0.0197431  
C1104    C      0.586810000000     0.966970000000     0.371160000000    -0.0639721  
C1105    C      0.549490000000     0.967390000000     0.087100000000    -0.0639172  
C1106    C      0.573100000000     0.459860000000     0.092100000000     0.0207105  
C1107    C      0.578650000000     0.452140000000     0.115490000000    -0.0635021  
C1108    C      0.561250000000     0.452350000000     0.133520000000     0.0164424  
C1109    C      0.537710000000     0.460020000000     0.128590000000    -0.0979703  
C1110    C      0.531960000000     0.967360000000     0.105120000000     0.018309   
C1111    C      0.592010000000     0.460260000000     0.073190000000     0.0215333  
C1112    C      0.586690000000     0.954040000000     0.049280000000    -0.064023   
C1113    C      0.604690000000     0.954070000000     0.031740000000     0.0194551  
C1114    C      0.628470000000     0.460110000000     0.037770000000    -0.0975609  
C1115    C      0.633730000000     0.466470000000     0.061620000000     0.0191459  
C1116    C      0.615730000000     0.466690000000     0.079050000000    -0.06433    
C1117    C      0.871060000000     0.453640000000     0.086970000000    -0.0639529  
C1118    C      0.847290000000     0.960530000000     0.092100000000     0.0207051  
C1119    C      0.841570000000     0.967730000000     0.115620000000    -0.0636769  
C1120    C      0.858980000000     0.967620000000     0.133630000000     0.0163909  
C1121    C      0.882680000000     0.960570000000     0.128590000000    -0.0978271  
C1122    C      0.888590000000     0.453750000000     0.104990000000     0.018047   
C1123    C      0.828390000000     0.460040000000     0.073190000000     0.0207489  
C1124    C      0.833530000000     0.466950000000     0.049430000000    -0.0641128  
C1125    C      0.815510000000     0.466850000000     0.031910000000     0.0180651  
C1126    C      0.791910000000     0.460020000000     0.037800000000    -0.0978531  
C1127    C      0.786860000000     0.952940000000     0.061490000000     0.01631    
C1128    C      0.804870000000     0.952820000000     0.078910000000    -0.063782   
C1129    C      0.966650000000     0.549570000000     0.333460000000    -0.0637648  
C1130    C      0.459280000000     0.573240000000     0.328540000000     0.0211951  
C1131    C      0.451190000000     0.578820000000     0.305270000000    -0.0646813  
C1132    C      0.450940000000     0.561370000000     0.287280000000     0.0199893  
C1133    C      0.458520000000     0.537780000000     0.292110000000    -0.0967781  
C1134    C      0.966170000000     0.532020000000     0.315480000000     0.0184868  
C1135    C      0.460210000000     0.592160000000     0.347430000000     0.0211073  
C1136    C      0.954320000000     0.586890000000     0.371430000000    -0.0643786  
C1137    C      0.954800000000     0.604880000000     0.388970000000     0.0185085  
C1138    C      0.460980000000     0.628600000000     0.382870000000    -0.09927    
C1139    C      0.467090000000     0.633800000000     0.358940000000     0.0183257  
C1140    C      0.466840000000     0.615800000000     0.341490000000    -0.0650297  
C1141    C      0.968240000000     0.841720000000     0.305160000000    -0.0644975  
C1142    C      0.960730000000     0.847500000000     0.328570000000     0.0213673  
C1143    C      0.454080000000     0.871350000000     0.333630000000    -0.0638121  
C1144    C      0.454650000000     0.888880000000     0.315640000000     0.0184432  
C1145    C      0.961720000000     0.882940000000     0.292130000000    -0.0966829  
C1146    C      0.968610000000     0.859160000000     0.287160000000     0.0199104  
C1147    C      0.459670000000     0.828610000000     0.347470000000     0.0213804  
C1148    C      0.952160000000     0.805200000000     0.341690000000    -0.0645697  
C1149    C      0.951770000000     0.787200000000     0.359140000000     0.0199217  
C1150    C      0.458680000000     0.792170000000     0.382910000000    -0.0967456  
C1151    C      0.465760000000     0.815680000000     0.388850000000     0.0183857  
C1152    C      0.466340000000     0.833670000000     0.371310000000    -0.0638224  
C1153    C      0.953590000000     0.833500000000     0.049540000000    -0.063769   
C1154    C      0.960950000000     0.828580000000     0.073210000000     0.0211251  
C1155    C      0.469050000000     0.805310000000     0.078790000000    -0.0645286  
C1156    C      0.469320000000     0.787310000000     0.061340000000     0.0197114  
C1157    C      0.961750000000     0.792150000000     0.037750000000    -0.0965104  
C1158    C      0.954080000000     0.815520000000     0.031990000000     0.0181632  
C1159    C      0.960010000000     0.847460000000     0.092130000000     0.0210798  
C1160    C      0.965910000000     0.871460000000     0.086870000000    -0.064313   
C1161    C      0.965430000000     0.889000000000     0.104860000000     0.0184896  
C1162    C      0.959240000000     0.882900000000     0.128570000000    -0.0991691  
C1163    C      0.453130000000     0.858960000000     0.133770000000     0.0182317  
C1164    C      0.453380000000     0.841520000000     0.115770000000    -0.0649545  
C1165    C      0.467930000000     0.579030000000     0.115660000000    -0.0651203  
C1166    C      0.460680000000     0.573270000000     0.092150000000     0.0208592  
C1167    C      0.954080000000     0.549420000000     0.087010000000    -0.0644962  
C1168    C      0.954500000000     0.531870000000     0.104990000000     0.0185066  
C1169    C      0.461290000000     0.537810000000     0.128580000000    -0.0994942  
C1170    C      0.468090000000     0.561580000000     0.133650000000     0.0183735  
C1171    C      0.959840000000     0.592180000000     0.073240000000     0.0208676  
C1172    C      0.452600000000     0.615690000000     0.079010000000    -0.065173   
C1173    C      0.952430000000     0.633680000000     0.061550000000     0.0182931  
C1174    C      0.959200000000     0.628600000000     0.037780000000    -0.0992359  
C1175    C      0.965990000000     0.605010000000     0.031830000000     0.0182426  
C1176    C      0.966420000000     0.587040000000     0.049390000000    -0.0643945  
C1177    C      0.460940000000     0.519530000000     0.647920000000     0.333912   
C1178    C      0.519380000000     0.459810000000     0.772700000000     0.334625   
C1179    C      0.519430000000     0.460340000000     0.647930000000     0.332192   
C1180    C      0.458800000000     0.519520000000     0.772730000000     0.335392   
C1181    C      0.901020000000     0.960970000000     0.772700000000     0.334319   
C1182    C      0.959530000000     0.901190000000     0.647920000000     0.333835   
C1183    C      0.961540000000     0.901200000000     0.772740000000     0.335365   
C1184    C      0.900980000000     0.960330000000     0.647930000000     0.331976   
C1185    C      0.959530000000     0.647940000000     0.519490000000     0.333873   
C1186    C      0.900940000000     0.772730000000     0.459370000000     0.334375   
C1187    C      0.900900000000     0.647980000000     0.460760000000     0.332127   
C1188    C      0.961500000000     0.772780000000     0.519480000000     0.3353     
C1189    C      0.519340000000     0.772740000000     0.961360000000     0.334563   
C1190    C      0.460710000000     0.647950000000     0.901170000000     0.333953   
C1191    C      0.458850000000     0.772790000000     0.901180000000     0.33529    
C1192    C      0.519380000000     0.647970000000     0.959840000000     0.332068   
C1193    C      0.772570000000     0.519470000000     0.461410000000     0.334126   
C1194    C      0.647780000000     0.459800000000     0.519460000000     0.334608   
C1195    C      0.772570000000     0.460280000000     0.519510000000     0.331999   
C1196    C      0.647730000000     0.519460000000     0.458490000000     0.335711   
C1197    C      0.647780000000     0.960800000000     0.901110000000     0.334486   
C1198    C      0.772570000000     0.901200000000     0.959130000000     0.334326   
C1199    C      0.647730000000     0.901200000000     0.962130000000     0.335659   
C1200    C      0.772570000000     0.960430000000     0.901070000000     0.331945   
C1201    C      0.804810000000     0.841880000000     0.450780000000    -0.0650363  
C1202    C      0.828340000000     0.847480000000     0.958100000000     0.021312   
C1203    C      0.833510000000     0.871180000000     0.965170000000    -0.0645455  
C1204    C      0.815530000000     0.888740000000     0.965190000000     0.0186389  
C1205    C      0.791910000000     0.882930000000     0.958360000000    -0.0994602  
C1206    C      0.786820000000     0.859320000000     0.451060000000     0.018779   
C1207    C      0.847200000000     0.828500000000     0.458680000000     0.0211808  
C1208    C      0.841330000000     0.804920000000     0.465570000000    -0.0642931  
C1209    C      0.858760000000     0.786910000000     0.465720000000     0.018954   
C1210    C      0.882620000000     0.792050000000     0.459290000000    -0.0974735  
C1211    C      0.888660000000     0.815680000000     0.952760000000     0.0194378  
C1212    C      0.871120000000     0.833680000000     0.952340000000    -0.0638493  
C1213    C      0.841470000000     0.615560000000     0.953980000000    -0.0635244  
C1214    C      0.847190000000     0.592170000000     0.461610000000     0.020291   
C1215    C      0.870950000000     0.587180000000     0.468630000000    -0.0637648  
C1216    C      0.888490000000     0.605190000000     0.468160000000     0.0180157  
C1217    C      0.882600000000     0.628640000000     0.460870000000    -0.0978022  
C1218    C      0.858890000000     0.633570000000     0.953740000000     0.0161175  
C1219    C      0.828330000000     0.573210000000     0.462270000000     0.021314   
C1220    C      0.804690000000     0.578960000000     0.969070000000    -0.0651463  
C1221    C      0.786700000000     0.561510000000     0.968860000000     0.018612   
C1222    C      0.791910000000     0.537750000000     0.462130000000    -0.0994325  
C1223    C      0.815630000000     0.531810000000     0.455820000000     0.0186892  
C1224    C      0.833620000000     0.549360000000     0.455790000000    -0.0646547  
C1225    C      0.586960000000     0.871040000000     0.455080000000    -0.06385    
C1226    C      0.591890000000     0.847530000000     0.962920000000     0.0215905  
C1227    C      0.615180000000     0.842120000000     0.971080000000    -0.0644614  
C1228    C      0.633190000000     0.859550000000     0.970900000000     0.0202757  
C1229    C      0.628350000000     0.882970000000     0.962810000000    -0.0968117  
C1230    C      0.604950000000     0.888590000000     0.455130000000     0.0186523  
C1231    C      0.573060000000     0.828550000000     0.962250000000     0.0213146  
C1232    C      0.548990000000     0.833840000000     0.467910000000    -0.0637967  
C1233    C      0.531470000000     0.815830000000     0.467430000000     0.0193226  
C1234    C      0.537660000000     0.792060000000     0.961500000000    -0.0974149  
C1235    C      0.561670000000     0.786820000000     0.955750000000     0.0189249  
C1236    C      0.579090000000     0.804840000000     0.955990000000    -0.0640143  
C1237    C      0.578980000000     0.615650000000     0.965730000000    -0.063459   
C1238    C      0.573070000000     0.592130000000     0.958710000000     0.0205188  
C1239    C      0.549140000000     0.587010000000     0.452400000000    -0.0637412  
C1240    C      0.531620000000     0.605030000000     0.452940000000     0.0180309  
C1241    C      0.537680000000     0.628620000000     0.959640000000    -0.0976235  
C1242    C      0.561570000000     0.633670000000     0.966070000000     0.0161428  
C1243    C      0.591900000000     0.573160000000     0.457940000000     0.0215489  
C1244    C      0.615310000000     0.578740000000     0.950260000000    -0.0646914  
C1245    C      0.633310000000     0.561300000000     0.950340000000     0.0201566  
C1246    C      0.628350000000     0.537710000000     0.457860000000    -0.0968531  
C1247    C      0.604830000000     0.531940000000     0.465060000000     0.0184924  
C1248    C      0.586840000000     0.549490000000     0.465180000000    -0.0639321  
C1249    C      0.871220000000     0.966760000000     0.833800000000    -0.0640781  
C1250    C      0.847300000000     0.960560000000     0.828480000000     0.0215871  
C1251    C      0.841430000000     0.454150000000     0.804770000000    -0.0642424  
C1252    C      0.858850000000     0.454350000000     0.786760000000     0.0190798  
C1253    C      0.882710000000     0.960700000000     0.792020000000    -0.0974742  
C1254    C      0.888760000000     0.966720000000     0.815790000000     0.0195183  
C1255    C      0.828400000000     0.960950000000     0.847400000000     0.0206864  
C1256    C      0.833400000000     0.953410000000     0.871000000000    -0.0637671  
C1257    C      0.815390000000     0.953430000000     0.888530000000     0.01823    
C1258    C      0.791910000000     0.960780000000     0.882790000000    -0.097804   
C1259    C      0.786980000000     0.468470000000     0.859260000000     0.0164304  
C1260    C      0.805000000000     0.468690000000     0.841860000000    -0.0635126  
C1261    C      0.578820000000     0.467400000000     0.804870000000    -0.0641707  
C1262    C      0.573100000000     0.460440000000     0.828470000000     0.0215347  
C1263    C      0.549320000000     0.953620000000     0.833670000000    -0.063889   
C1264    C      0.531780000000     0.953600000000     0.815670000000     0.0196035  
C1265    C      0.537690000000     0.460160000000     0.792010000000    -0.0975786  
C1266    C      0.561400000000     0.467110000000     0.786860000000     0.0193731  
C1267    C      0.592020000000     0.960130000000     0.847390000000     0.0216164  
C1268    C      0.615620000000     0.453170000000     0.841690000000    -0.0641652  
C1269    C      0.633630000000     0.453470000000     0.859110000000     0.0194377  
C1270    C      0.628470000000     0.960430000000     0.882810000000    -0.0976215  
C1271    C      0.604810000000     0.967000000000     0.888700000000     0.019742   
C1272    C      0.586810000000     0.966970000000     0.871160000000    -0.0639727  
C1273    C      0.549490000000     0.967390000000     0.587100000000    -0.0639056  
C1274    C      0.573100000000     0.459860000000     0.592100000000     0.0207193  
C1275    C      0.578650000000     0.452140000000     0.615490000000    -0.0634949  
C1276    C      0.561250000000     0.452350000000     0.633520000000     0.0164498  
C1277    C      0.537710000000     0.460020000000     0.628590000000    -0.0979702  
C1278    C      0.531960000000     0.967360000000     0.605120000000     0.0183257  
C1279    C      0.592010000000     0.460260000000     0.573190000000     0.021581   
C1280    C      0.586690000000     0.954040000000     0.549280000000    -0.0640309  
C1281    C      0.604690000000     0.954070000000     0.531740000000     0.0196081  
C1282    C      0.628470000000     0.460110000000     0.537770000000    -0.0976826  
C1283    C      0.633730000000     0.466470000000     0.561620000000     0.0192409  
C1284    C      0.615730000000     0.466680000000     0.579050000000    -0.0643283  
C1285    C      0.871060000000     0.453640000000     0.586970000000    -0.0639481  
C1286    C      0.847290000000     0.960530000000     0.592100000000     0.0206836  
C1287    C      0.841570000000     0.967730000000     0.615620000000    -0.0636531  
C1288    C      0.858980000000     0.967620000000     0.633630000000     0.0163817  
C1289    C      0.882680000000     0.960570000000     0.628590000000    -0.0978066  
C1290    C      0.888590000000     0.453750000000     0.604990000000     0.0180641  
C1291    C      0.828390000000     0.460040000000     0.573190000000     0.0207497  
C1292    C      0.833530000000     0.466950000000     0.549430000000    -0.0641056  
C1293    C      0.815510000000     0.466850000000     0.531910000000     0.0182234  
C1294    C      0.791910000000     0.460020000000     0.537800000000    -0.0979982  
C1295    C      0.786860000000     0.952940000000     0.561490000000     0.016394   
C1296    C      0.804870000000     0.952820000000     0.578910000000    -0.0637897  
C1297    C      0.966650000000     0.549570000000     0.833460000000    -0.0637445  
C1298    C      0.459280000000     0.573240000000     0.828540000000     0.0211656  
C1299    C      0.451190000000     0.578820000000     0.805270000000    -0.0646215  
C1300    C      0.450940000000     0.561370000000     0.787270000000     0.0198927  
C1301    C      0.458520000000     0.537780000000     0.792110000000    -0.0967285  
C1302    C      0.966170000000     0.532020000000     0.815480000000     0.01846    
C1303    C      0.460210000000     0.592160000000     0.847430000000     0.0211153  
C1304    C      0.954320000000     0.586890000000     0.871430000000    -0.0643834  
C1305    C      0.954800000000     0.604880000000     0.888970000000     0.0185086  
C1306    C      0.460980000000     0.628600000000     0.882870000000    -0.0992732  
C1307    C      0.467090000000     0.633800000000     0.858940000000     0.0183243  
C1308    C      0.466840000000     0.615800000000     0.841490000000    -0.0650376  
C1309    C      0.968240000000     0.841720000000     0.805160000000    -0.0644644  
C1310    C      0.960730000000     0.847500000000     0.828580000000     0.0213226  
C1311    C      0.454080000000     0.871350000000     0.833630000000    -0.0637917  
C1312    C      0.454650000000     0.888880000000     0.815640000000     0.0184309  
C1313    C      0.961720000000     0.882940000000     0.792130000000    -0.0966754  
C1314    C      0.968610000000     0.859160000000     0.787160000000     0.0198902  
C1315    C      0.459670000000     0.828610000000     0.847470000000     0.021391   
C1316    C      0.952160000000     0.805200000000     0.841690000000    -0.064578   
C1317    C      0.951770000000     0.787200000000     0.859140000000     0.0199201  
C1318    C      0.458680000000     0.792170000000     0.882910000000    -0.096747   
C1319    C      0.465760000000     0.815680000000     0.888850000000     0.0183875  
C1320    C      0.466340000000     0.833670000000     0.871310000000    -0.0638279  
C1321    C      0.953590000000     0.833500000000     0.549540000000    -0.063794   
C1322    C      0.960950000000     0.828580000000     0.573210000000     0.0211848  
C1323    C      0.469050000000     0.805310000000     0.578790000000    -0.0645663  
C1324    C      0.469320000000     0.787310000000     0.561340000000     0.0198469  
C1325    C      0.961750000000     0.792150000000     0.537750000000    -0.0967035  
C1326    C      0.954080000000     0.815520000000     0.531990000000     0.0183499  
C1327    C      0.960010000000     0.847460000000     0.592130000000     0.0210929  
C1328    C      0.965910000000     0.871460000000     0.586870000000    -0.064308   
C1329    C      0.965430000000     0.889000000000     0.604860000000     0.0185249  
C1330    C      0.959240000000     0.882900000000     0.628570000000    -0.0992335  
C1331    C      0.453130000000     0.858960000000     0.633770000000     0.0182715  
C1332    C      0.453380000000     0.841520000000     0.615770000000    -0.06496    
C1333    C      0.467930000000     0.579030000000     0.615660000000    -0.0651131  
C1334    C      0.460680000000     0.573270000000     0.592150000000     0.02087    
C1335    C      0.954080000000     0.549420000000     0.587010000000    -0.0644808  
C1336    C      0.954500000000     0.531870000000     0.604990000000     0.0185185  
C1337    C      0.461290000000     0.537810000000     0.628580000000    -0.0994904  
C1338    C      0.468090000000     0.561580000000     0.633650000000     0.018379   
C1339    C      0.959840000000     0.592180000000     0.573240000000     0.0209203  
C1340    C      0.452600000000     0.615690000000     0.579010000000    -0.0651924  
C1341    C      0.952430000000     0.633680000000     0.561550000000     0.0183997  
C1342    C      0.959200000000     0.628600000000     0.537780000000    -0.0993654  
C1343    C      0.965990000000     0.605010000000     0.531830000000     0.0183957  
C1344    C      0.966420000000     0.587040000000     0.549390000000    -0.0644054  
H1       H      0.996930000000     0.997380000000     0.244500000000     0.210284   
H2       H      0.997570000000     0.423030000000     0.174490000000     0.20378    
H3       H      0.423480000000     0.423360000000     0.244510000000     0.210293   
H4       H      0.422840000000     0.997700000000     0.174480000000     0.20393    
H5       H      0.038290000000     0.417350000000     0.206940000000     0.12523    
H6       H      0.004680000000     0.378700000000     0.207340000000     0.185431   
H7       H      0.418240000000     0.386110000000     0.196780000000     0.14786    
H8       H      0.377650000000     0.420730000000     0.225360000000     0.199521   
H9       H      0.382140000000     0.003400000000     0.207010000000     0.12483    
H10      H      0.415740000000     0.042030000000     0.207230000000     0.185506   
H11      H      0.002190000000     0.034630000000     0.196860000000     0.147196   
H12      H      0.042720000000     0.000060000000     0.225290000000     0.19868    
H13      H      0.380330000000     0.418630000000     0.195520000000     0.203743   
H14      H      0.439310000000     0.060340000000     0.210870000000     0.203183   
H15      H      0.040090000000     0.002070000000     0.195430000000     0.202566   
H16      H      0.981090000000     0.360390000000     0.210900000000     0.203119   
H17      H      0.423420000000     0.244570000000     0.997350000000     0.209812   
H18      H      0.422720000000     0.174500000000     0.423070000000     0.203655   
H19      H      0.996870000000     0.244570000000     0.423330000000     0.2101     
H20      H      0.997570000000     0.174490000000     0.997600000000     0.203714   
H21      H      0.382070000000     0.207010000000     0.417340000000     0.125312   
H22      H      0.415620000000     0.207410000000     0.378710000000     0.18594    
H23      H      0.002040000000     0.196760000000     0.386050000000     0.147227   
H24      H      0.042770000000     0.225750000000     0.420860000000     0.199207   
H25      H      0.038190000000     0.207100000000     0.003350000000     0.124723   
H26      H      0.004660000000     0.207320000000     0.041960000000     0.185073   
H27      H      0.418230000000     0.196830000000     0.034630000000     0.147691   
H28      H      0.377560000000     0.225670000000     0.999870000000     0.199165   
H29      H      0.039920000000     0.195950000000     0.418370000000     0.203327   
H30      H      0.981090000000     0.210930000000     0.060280000000     0.203057   
H31      H      0.380360000000     0.195860000000     0.002270000000     0.202711   
H32      H      0.439200000000     0.210940000000     0.360390000000     0.203512   
H33      H      0.175950000000     0.997360000000     0.996980000000     0.209941   
H34      H      0.246030000000     0.422960000000     0.997620000000     0.203508   
H35      H      0.175960000000     0.423290000000     0.423590000000     0.210099   
H36      H      0.246030000000     0.997700000000     0.422960000000     0.203383   
H37      H      0.213440000000     0.417300000000     0.038340000000     0.125429   
H38      H      0.213590000000     0.378680000000     0.004740000000     0.185236   
H39      H      0.223190000000     0.386080000000     0.418170000000     0.148015   
H40      H      0.195240000000     0.420570000000     0.377840000000     0.199436   
H41      H      0.213520000000     0.003340000000     0.382200000000     0.124873   
H42      H      0.213520000000     0.041970000000     0.415820000000     0.185565   
H43      H      0.223250000000     0.034570000000     0.002380000000     0.147373   
H44      H      0.195160000000     0.000030000000     0.042760000000     0.198596   
H45      H      0.225120000000     0.418670000000     0.380360000000     0.203251   
H46      H      0.209770000000     0.060290000000     0.439370000000     0.203468   
H47      H      0.225030000000     0.002010000000     0.040200000000     0.202569   
H48      H      0.209780000000     0.360360000000     0.981200000000     0.203516   
H49      H      0.351320000000     0.376110000000     0.471210000000     0.0452435  
H50      H      0.320050000000     0.406740000000     0.471030000000     0.0365487  
H51      H      0.268900000000     0.354280000000     0.945390000000     0.0331587  
H52      H      0.300250000000     0.323980000000     0.944680000000     0.0458176  
H53      H      0.323270000000     0.300340000000     0.971110000000     0.0452885  
H54      H      0.353530000000     0.268980000000     0.971150000000     0.033469   
H55      H      0.406860000000     0.320220000000     0.447570000000     0.0381877  
H56      H      0.376250000000     0.351560000000     0.446650000000     0.0455131  
H57      H      0.375960000000     0.069460000000     0.974880000000     0.0452731  
H58      H      0.406550000000     0.100800000000     0.973890000000     0.0381696  
H59      H      0.353750000000     0.151350000000     0.447740000000     0.0375804  
H60      H      0.323520000000     0.119970000000     0.447920000000     0.0451343  
H61      H      0.300030000000     0.096990000000     0.474700000000     0.0452269  
H62      H      0.268690000000     0.066670000000     0.474130000000     0.0331629  
H63      H      0.320260000000     0.013700000000     0.950430000000     0.0366662  
H64      H      0.351540000000     0.044320000000     0.950170000000     0.045183   
H65      H      0.119540000000     0.324380000000     0.477760000000     0.045951   
H66      H      0.150920000000     0.354650000000     0.477240000000     0.0345255  
H67      H      0.100620000000     0.406430000000     0.948680000000     0.0374327  
H68      H      0.069320000000     0.375810000000     0.948410000000     0.0453253  
H69      H      0.043730000000     0.351830000000     0.973100000000     0.0456573  
H70      H      0.013160000000     0.320470000000     0.972080000000     0.0382652  
H71      H      0.067050000000     0.268800000000     0.450790000000     0.0340511  
H72      H      0.097300000000     0.300160000000     0.450990000000     0.0457629  
H73      H      0.043980000000     0.069160000000     0.946630000000     0.0452381  
H74      H      0.013420000000     0.100520000000     0.947760000000     0.0380618  
H75      H      0.066870000000     0.151560000000     0.471600000000     0.0379197  
H76      H      0.097080000000     0.120170000000     0.471220000000     0.0456869  
H77      H      0.119770000000     0.096620000000     0.444040000000     0.0454608  
H78      H      0.151140000000     0.066340000000     0.444390000000     0.0345283  
H79      H      0.100390000000     0.013980000000     0.971060000000     0.0373356  
H80      H      0.069090000000     0.044600000000     0.971470000000     0.0451792  
H81      H      0.323350000000     0.948730000000     0.300070000000     0.0459966  
H82      H      0.353600000000     0.949290000000     0.268730000000     0.0338317  
H83      H      0.406950000000     0.471790000000     0.320430000000     0.0382412  
H84      H      0.376350000000     0.472070000000     0.351780000000     0.0455494  
H85      H      0.351130000000     0.447060000000     0.375850000000     0.0453306  
H86      H      0.319770000000     0.447290000000     0.406460000000     0.0381314  
H87      H      0.269190000000     0.974560000000     0.354270000000     0.0378013  
H88      H      0.300580000000     0.975150000000     0.324060000000     0.0463934  
H89      H      0.044310000000     0.447860000000     0.351560000000     0.0454281  
H90      H      0.013700000000     0.448040000000     0.320210000000     0.037992   
H91      H      0.066510000000     0.972600000000     0.268920000000     0.0335585  
H92      H      0.096760000000     0.973320000000     0.300270000000     0.0465001  
H93      H      0.120230000000     0.947240000000     0.323750000000     0.0464401  
H94      H      0.151580000000     0.947970000000     0.354000000000     0.0334725  
H95      H      0.100260000000     0.472560000000     0.406780000000     0.038117   
H96      H      0.068920000000     0.472730000000     0.376160000000     0.0455018  
H97      H      0.096460000000     0.945690000000     0.119910000000     0.046365   
H98      H      0.066260000000     0.946270000000     0.151300000000     0.0377963  
H99      H      0.014020000000     0.473480000000     0.100730000000     0.0378576  
H100     H      0.044620000000     0.473730000000     0.069380000000     0.0451367  
H101     H      0.068700000000     0.448720000000     0.044160000000     0.0454911  
H102     H      0.100040000000     0.448980000000     0.013550000000     0.038097   
H103     H      0.151770000000     0.971540000000     0.066860000000     0.0338663  
H104     H      0.120430000000     0.972120000000     0.097120000000     0.0459694  
H105     H      0.323610000000     0.473680000000     0.120140000000     0.0458217  
H106     H      0.353830000000     0.473290000000     0.151520000000     0.0378474  
H107     H      0.406650000000     0.948110000000     0.100490000000     0.0380623  
H108     H      0.376060000000     0.947730000000     0.069140000000     0.045214   
H109     H      0.351360000000     0.972880000000     0.044440000000     0.0452697  
H110     H      0.320010000000     0.972510000000     0.013850000000     0.0379959  
H111     H      0.268970000000     0.447270000000     0.066630000000     0.0378063  
H112     H      0.300350000000     0.446870000000     0.096850000000     0.0459015  
H113     H      0.944870000000     0.096690000000     0.300930000000     0.0447672  
H114     H      0.944660000000     0.066410000000     0.269560000000     0.0342339  
H115     H      0.472260000000     0.014050000000     0.319810000000     0.0373535  
H116     H      0.473260000000     0.044670000000     0.351080000000     0.0453276  
H117     H      0.448850000000     0.068960000000     0.376620000000     0.0452885  
H118     H      0.449860000000     0.100250000000     0.407210000000     0.0368504  
H119     H      0.972220000000     0.151800000000     0.353630000000     0.0331683  
H120     H      0.972020000000     0.120440000000     0.323330000000     0.0451926  
H121     H      0.947950000000     0.376410000000     0.351380000000     0.0454554  
H122     H      0.949110000000     0.406990000000     0.320090000000     0.0376746  
H123     H      0.474420000000     0.353960000000     0.269340000000     0.0345302  
H124     H      0.473990000000     0.323680000000     0.300710000000     0.0453496  
H125     H      0.446390000000     0.300750000000     0.323660000000     0.0453638  
H126     H      0.445950000000     0.269380000000     0.353940000000     0.034501   
H127     H      0.971310000000     0.320130000000     0.406950000000     0.0376414  
H128     H      0.972480000000     0.351420000000     0.376360000000     0.0455183  
H129     H      0.975370000000     0.300960000000     0.096660000000     0.0448308  
H130     H      0.975610000000     0.269600000000     0.066370000000     0.0343264  
H131     H      0.448000000000     0.319850000000     0.014030000000     0.0372942  
H132     H      0.446980000000     0.351120000000     0.044650000000     0.0452471  
H133     H      0.471370000000     0.376660000000     0.068940000000     0.0453659  
H134     H      0.470360000000     0.407240000000     0.100240000000     0.0369564  
H135     H      0.948000000000     0.353650000000     0.151770000000     0.0331312  
H136     H      0.948200000000     0.323350000000     0.120410000000     0.0451135  
H137     H      0.448120000000     0.044370000000     0.069210000000     0.0450928  
H138     H      0.449020000000     0.013750000000     0.100480000000     0.0364717  
H139     H      0.973700000000     0.066750000000     0.151550000000     0.0328915  
H140     H      0.973670000000     0.097050000000     0.120200000000     0.0445995  
H141     H      0.946880000000     0.120240000000     0.097020000000     0.0445797  
H142     H      0.946820000000     0.151590000000     0.066720000000     0.0328653  
H143     H      0.471450000000     0.100500000000     0.013720000000     0.0364817  
H144     H      0.472370000000     0.069230000000     0.044330000000     0.0450488  
H145     H      0.996930000000     0.997380000000     0.744500000000     0.210281   
H146     H      0.997570000000     0.423030000000     0.674490000000     0.203779   
H147     H      0.423480000000     0.423360000000     0.744510000000     0.210288   
H148     H      0.422840000000     0.997700000000     0.674480000000     0.203929   
H149     H      0.038290000000     0.417350000000     0.706930000000     0.125153   
H150     H      0.004680000000     0.378700000000     0.707340000000     0.185434   
H151     H      0.418240000000     0.386110000000     0.696780000000     0.148051   
H152     H      0.377650000000     0.420730000000     0.725360000000     0.199516   
H153     H      0.382140000000     0.003400000000     0.707010000000     0.12483    
H154     H      0.415740000000     0.042030000000     0.707230000000     0.185505   
H155     H      0.002190000000     0.034630000000     0.696860000000     0.147194   
H156     H      0.042720000000     0.000060000000     0.725290000000     0.198679   
H157     H      0.380330000000     0.418630000000     0.695520000000     0.20374    
H158     H      0.439310000000     0.060340000000     0.710870000000     0.20318    
H159     H      0.040090000000     0.002070000000     0.695430000000     0.202566   
H160     H      0.981090000000     0.360390000000     0.710900000000     0.20312    
H161     H      0.423420000000     0.244570000000     0.497350000000     0.209721   
H162     H      0.422720000000     0.174500000000     0.923070000000     0.20365    
H163     H      0.996870000000     0.244570000000     0.923330000000     0.210095   
H164     H      0.997570000000     0.174490000000     0.497600000000     0.203587   
H165     H      0.382070000000     0.207010000000     0.917340000000     0.125306   
H166     H      0.415620000000     0.207410000000     0.878710000000     0.185935   
H167     H      0.002040000000     0.196760000000     0.886050000000     0.147223   
H168     H      0.042770000000     0.225750000000     0.920860000000     0.199207   
H169     H      0.038190000000     0.207100000000     0.503350000000     0.125211   
H170     H      0.004660000000     0.207320000000     0.541960000000     0.185164   
H171     H      0.418230000000     0.196830000000     0.534630000000     0.147773   
H172     H      0.377560000000     0.225670000000     0.499870000000     0.199181   
H173     H      0.039920000000     0.195950000000     0.918370000000     0.203326   
H174     H      0.981090000000     0.210930000000     0.560280000000     0.203086   
H175     H      0.380360000000     0.195860000000     0.502270000000     0.203242   
H176     H      0.439200000000     0.210940000000     0.860390000000     0.203509   
H177     H      0.175950000000     0.997360000000     0.496980000000     0.209844   
H178     H      0.246030000000     0.422960000000     0.497620000000     0.203386   
H179     H      0.175960000000     0.423290000000     0.923590000000     0.210094   
H180     H      0.246030000000     0.997700000000     0.922960000000     0.203378   
H181     H      0.213440000000     0.417300000000     0.538340000000     0.12552    
H182     H      0.213590000000     0.378680000000     0.504740000000     0.185747   
H183     H      0.223190000000     0.386080000000     0.918170000000     0.148012   
H184     H      0.195240000000     0.420570000000     0.877840000000     0.199431   
H185     H      0.213520000000     0.003340000000     0.882200000000     0.12487    
H186     H      0.213520000000     0.041970000000     0.915820000000     0.185564   
H187     H      0.223250000000     0.034570000000     0.502380000000     0.14788    
H188     H      0.195160000000     0.000030000000     0.542770000000     0.198414   
H189     H      0.225120000000     0.418670000000     0.880360000000     0.203246   
H190     H      0.209770000000     0.060290000000     0.939370000000     0.203485   
H191     H      0.225030000000     0.002010000000     0.540200000000     0.202423   
H192     H      0.209780000000     0.360360000000     0.481200000000     0.203577   
H193     H      0.351320000000     0.376110000000     0.971210000000     0.0453079  
H194     H      0.320040000000     0.406740000000     0.971030000000     0.0366216  
H195     H      0.268900000000     0.354280000000     0.445390000000     0.0331405  
H196     H      0.300250000000     0.323980000000     0.444680000000     0.0458062  
H197     H      0.323270000000     0.300340000000     0.471110000000     0.045241   
H198     H      0.353530000000     0.268980000000     0.471160000000     0.0334146  
H199     H      0.406860000000     0.320220000000     0.947570000000     0.0382196  
H200     H      0.376250000000     0.351560000000     0.946650000000     0.0455357  
H201     H      0.375960000000     0.069460000000     0.474890000000     0.0451909  
H202     H      0.406550000000     0.100800000000     0.473890000000     0.0381005  
H203     H      0.353750000000     0.151350000000     0.947740000000     0.0376122  
H204     H      0.323520000000     0.119970000000     0.947920000000     0.0451444  
H205     H      0.300030000000     0.096990000000     0.974700000000     0.0452849  
H206     H      0.268690000000     0.066670000000     0.974130000000     0.0332143  
H207     H      0.320260000000     0.013700000000     0.450430000000     0.0366354  
H208     H      0.351540000000     0.044330000000     0.450170000000     0.0451728  
H209     H      0.119540000000     0.324380000000     0.977770000000     0.0459872  
H210     H      0.150920000000     0.354650000000     0.977230000000     0.0345947  
H211     H      0.100620000000     0.406430000000     0.448680000000     0.0373999  
H212     H      0.069320000000     0.375810000000     0.448410000000     0.045322   
H213     H      0.043730000000     0.351830000000     0.473100000000     0.0455898  
H214     H      0.013160000000     0.320470000000     0.472080000000     0.0381997  
H215     H      0.067050000000     0.268800000000     0.950800000000     0.0340769  
H216     H      0.097300000000     0.300160000000     0.950990000000     0.0457783  
H217     H      0.043980000000     0.069160000000     0.446630000000     0.0452145  
H218     H      0.013420000000     0.100520000000     0.447760000000     0.0380342  
H219     H      0.066870000000     0.151560000000     0.971600000000     0.037966   
H220     H      0.097080000000     0.120170000000     0.971220000000     0.0457357  
H221     H      0.119770000000     0.096620000000     0.944040000000     0.0454713  
H222     H      0.151140000000     0.066340000000     0.944390000000     0.0345407  
H223     H      0.100380000000     0.013980000000     0.471060000000     0.0372594  
H224     H      0.069090000000     0.044600000000     0.471470000000     0.0451165  
H225     H      0.323350000000     0.948730000000     0.800070000000     0.0459887  
H226     H      0.353600000000     0.949290000000     0.768720000000     0.0338334  
H227     H      0.406950000000     0.471790000000     0.820430000000     0.038243   
H228     H      0.376350000000     0.472070000000     0.851780000000     0.0455556  
H229     H      0.351130000000     0.447060000000     0.875850000000     0.0453365  
H230     H      0.319770000000     0.447290000000     0.906460000000     0.0381423  
H231     H      0.269190000000     0.974560000000     0.854270000000     0.0377978  
H232     H      0.300580000000     0.975150000000     0.824060000000     0.046387   
H233     H      0.044310000000     0.447860000000     0.851560000000     0.0454321  
H234     H      0.013700000000     0.448040000000     0.820210000000     0.0379945  
H235     H      0.066510000000     0.972600000000     0.768920000000     0.0335575  
H236     H      0.096760000000     0.973320000000     0.800270000000     0.0464961  
H237     H      0.120230000000     0.947240000000     0.823750000000     0.0464358  
H238     H      0.151580000000     0.947970000000     0.854000000000     0.0334684  
H239     H      0.100260000000     0.472560000000     0.906780000000     0.0381293  
H240     H      0.068920000000     0.472730000000     0.876160000000     0.045509   
H241     H      0.096460000000     0.945690000000     0.619910000000     0.0463709  
H242     H      0.066260000000     0.946270000000     0.651300000000     0.0377911  
H243     H      0.014020000000     0.473480000000     0.600730000000     0.0378787  
H244     H      0.044620000000     0.473730000000     0.569380000000     0.0451857  
H245     H      0.068700000000     0.448720000000     0.544160000000     0.0455727  
H246     H      0.100040000000     0.448980000000     0.513550000000     0.0382368  
H247     H      0.151770000000     0.971540000000     0.566860000000     0.0338628  
H248     H      0.120430000000     0.972110000000     0.597120000000     0.0460066  
H249     H      0.323610000000     0.473680000000     0.620140000000     0.0458258  
H250     H      0.353830000000     0.473290000000     0.651520000000     0.0378523  
H251     H      0.406650000000     0.948110000000     0.600490000000     0.0380948  
H252     H      0.376060000000     0.947730000000     0.569130000000     0.0452173  
H253     H      0.351360000000     0.972880000000     0.544440000000     0.045354   
H254     H      0.320010000000     0.972510000000     0.513850000000     0.0381266  
H255     H      0.268970000000     0.447270000000     0.566630000000     0.0378139  
H256     H      0.300350000000     0.446870000000     0.596860000000     0.0458761  
H257     H      0.944870000000     0.096690000000     0.800930000000     0.0447468  
H258     H      0.944660000000     0.066410000000     0.769560000000     0.0342547  
H259     H      0.472260000000     0.014050000000     0.819810000000     0.0373604  
H260     H      0.473260000000     0.044670000000     0.851080000000     0.0453265  
H261     H      0.448850000000     0.068960000000     0.876620000000     0.0452973  
H262     H      0.449860000000     0.100250000000     0.907210000000     0.0368619  
H263     H      0.972220000000     0.151800000000     0.853630000000     0.0331621  
H264     H      0.972020000000     0.120440000000     0.823330000000     0.0451886  
H265     H      0.947950000000     0.376410000000     0.851380000000     0.0454603  
H266     H      0.949110000000     0.406990000000     0.820090000000     0.0376753  
H267     H      0.474420000000     0.353960000000     0.769340000000     0.0345317  
H268     H      0.473990000000     0.323680000000     0.800710000000     0.0453364  
H269     H      0.446390000000     0.300750000000     0.823660000000     0.0453611  
H270     H      0.445950000000     0.269380000000     0.853940000000     0.0344961  
H271     H      0.971310000000     0.320130000000     0.906950000000     0.037654   
H272     H      0.972480000000     0.351420000000     0.876360000000     0.0455256  
H273     H      0.975370000000     0.300960000000     0.596660000000     0.0448564  
H274     H      0.975610000000     0.269600000000     0.566370000000     0.0343088  
H275     H      0.448000000000     0.319850000000     0.514030000000     0.0374295  
H276     H      0.446980000000     0.351120000000     0.544650000000     0.0453305  
H277     H      0.471370000000     0.376660000000     0.568940000000     0.0454181  
H278     H      0.470360000000     0.407240000000     0.600240000000     0.0369689  
H279     H      0.948000000000     0.353650000000     0.651770000000     0.0331244  
H280     H      0.948200000000     0.323350000000     0.620410000000     0.045125   
H281     H      0.448120000000     0.044370000000     0.569210000000     0.0451499  
H282     H      0.449020000000     0.013750000000     0.600480000000     0.0364802  
H283     H      0.973700000000     0.066750000000     0.651550000000     0.0328832  
H284     H      0.973670000000     0.097050000000     0.620200000000     0.0446136  
H285     H      0.946880000000     0.120240000000     0.597020000000     0.0446007  
H286     H      0.946820000000     0.151590000000     0.566720000000     0.0328599  
H287     H      0.471450000000     0.100500000000     0.513720000000     0.0366264  
H288     H      0.472380000000     0.069230000000     0.544330000000     0.0451131  
H289     H      0.996930000000     0.497380000000     0.244500000000     0.210146   
H290     H      0.997570000000     0.923030000000     0.174490000000     0.203776   
H291     H      0.423480000000     0.923360000000     0.244510000000     0.210116   
H292     H      0.422840000000     0.497700000000     0.174480000000     0.20377    
H293     H      0.038290000000     0.917350000000     0.206940000000     0.125223   
H294     H      0.004680000000     0.878700000000     0.207340000000     0.185445   
H295     H      0.418240000000     0.886110000000     0.196780000000     0.147801   
H296     H      0.377650000000     0.920730000000     0.225360000000     0.199391   
H297     H      0.382140000000     0.503400000000     0.207010000000     0.125387   
H298     H      0.415740000000     0.542030000000     0.207230000000     0.18561    
H299     H      0.002190000000     0.534630000000     0.196860000000     0.147287   
H300     H      0.042720000000     0.500060000000     0.225290000000     0.199448   
H301     H      0.380330000000     0.918630000000     0.195520000000     0.203636   
H302     H      0.439310000000     0.560340000000     0.210870000000     0.203209   
H303     H      0.040090000000     0.502070000000     0.195430000000     0.20331    
H304     H      0.981100000000     0.860390000000     0.210900000000     0.20322    
H305     H      0.423420000000     0.744570000000     0.997350000000     0.209613   
H306     H      0.422720000000     0.674500000000     0.423070000000     0.203657   
H307     H      0.996870000000     0.744570000000     0.423330000000     0.210097   
H308     H      0.997570000000     0.674490000000     0.997600000000     0.203716   
H309     H      0.382070000000     0.707010000000     0.417340000000     0.125311   
H310     H      0.415620000000     0.707410000000     0.378710000000     0.185931   
H311     H      0.002040000000     0.696760000000     0.386050000000     0.147418   
H312     H      0.042770000000     0.725750000000     0.420860000000     0.199198   
H313     H      0.038190000000     0.707100000000     0.003350000000     0.124723   
H314     H      0.004660000000     0.707320000000     0.041960000000     0.185072   
H315     H      0.418230000000     0.696830000000     0.034630000000     0.147693   
H316     H      0.377560000000     0.725670000000     0.999870000000     0.199167   
H317     H      0.039920000000     0.695950000000     0.418370000000     0.203323   
H318     H      0.981090000000     0.710930000000     0.060280000000     0.203055   
H319     H      0.380360000000     0.695860000000     0.002270000000     0.202712   
H320     H      0.439200000000     0.710950000000     0.360390000000     0.203486   
H321     H      0.175950000000     0.497360000000     0.996980000000     0.209794   
H322     H      0.246030000000     0.922960000000     0.997620000000     0.203493   
H323     H      0.175960000000     0.923290000000     0.423590000000     0.2099     
H324     H      0.246030000000     0.497690000000     0.422950000000     0.203239   
H325     H      0.213440000000     0.917300000000     0.038340000000     0.125423   
H326     H      0.213590000000     0.878680000000     0.004740000000     0.18523    
H327     H      0.223190000000     0.886080000000     0.418170000000     0.14801    
H328     H      0.195240000000     0.920570000000     0.377840000000     0.199439   
H329     H      0.213520000000     0.503340000000     0.382200000000     0.125433   
H330     H      0.213520000000     0.541970000000     0.415820000000     0.185672   
H331     H      0.223250000000     0.534570000000     0.002380000000     0.14746    
H332     H      0.195160000000     0.500030000000     0.042760000000     0.199371   
H333     H      0.225120000000     0.918670000000     0.380360000000     0.20325    
H334     H      0.209770000000     0.560290000000     0.439370000000     0.203496   
H335     H      0.225030000000     0.502010000000     0.040200000000     0.203308   
H336     H      0.209780000000     0.860360000000     0.981200000000     0.203507   
H337     H      0.351320000000     0.876110000000     0.471210000000     0.0452395  
H338     H      0.320050000000     0.906740000000     0.471030000000     0.0365764  
H339     H      0.268900000000     0.854280000000     0.945390000000     0.0331499  
H340     H      0.300250000000     0.823980000000     0.944680000000     0.045809   
H341     H      0.323270000000     0.800340000000     0.971110000000     0.0452927  
H342     H      0.353530000000     0.768980000000     0.971150000000     0.0334608  
H343     H      0.406860000000     0.820220000000     0.447570000000     0.038172   
H344     H      0.376250000000     0.851550000000     0.446650000000     0.0455723  
H345     H      0.375960000000     0.569460000000     0.974880000000     0.0453263  
H346     H      0.406550000000     0.600800000000     0.973890000000     0.0381937  
H347     H      0.353750000000     0.651350000000     0.447740000000     0.0375824  
H348     H      0.323520000000     0.619970000000     0.447920000000     0.045143   
H349     H      0.300030000000     0.596990000000     0.474700000000     0.0452507  
H350     H      0.268690000000     0.566670000000     0.474130000000     0.03315    
H351     H      0.320260000000     0.513690000000     0.950430000000     0.0368158  
H352     H      0.351540000000     0.544330000000     0.950170000000     0.0452942  
H353     H      0.119540000000     0.824380000000     0.477760000000     0.0459448  
H354     H      0.150920000000     0.854650000000     0.477230000000     0.0345308  
H355     H      0.100620000000     0.906430000000     0.948680000000     0.0374436  
H356     H      0.069320000000     0.875800000000     0.948410000000     0.0453482  
H357     H      0.043730000000     0.851830000000     0.973100000000     0.045656   
H358     H      0.013160000000     0.820460000000     0.972080000000     0.038286   
H359     H      0.067050000000     0.768790000000     0.450790000000     0.0340671  
H360     H      0.097300000000     0.800160000000     0.450990000000     0.0457551  
H361     H      0.043980000000     0.569160000000     0.946630000000     0.0452922  
H362     H      0.013420000000     0.600530000000     0.947760000000     0.0380998  
H363     H      0.066870000000     0.651560000000     0.471600000000     0.0379211  
H364     H      0.097080000000     0.620170000000     0.471220000000     0.0456944  
H365     H      0.119770000000     0.596620000000     0.444040000000     0.045485   
H366     H      0.151140000000     0.566340000000     0.444390000000     0.0345233  
H367     H      0.100390000000     0.513980000000     0.971060000000     0.0374979  
H368     H      0.069090000000     0.544600000000     0.971470000000     0.0452694  
H369     H      0.323350000000     0.448730000000     0.300070000000     0.0459682  
H370     H      0.353600000000     0.449290000000     0.268730000000     0.0338402  
H371     H      0.406950000000     0.971790000000     0.320430000000     0.0383049  
H372     H      0.376350000000     0.972070000000     0.351780000000     0.0456309  
H373     H      0.351130000000     0.947060000000     0.375850000000     0.0453546  
H374     H      0.319770000000     0.947290000000     0.406460000000     0.0381609  
H375     H      0.269190000000     0.474560000000     0.354270000000     0.0377413  
H376     H      0.300580000000     0.475150000000     0.324060000000     0.0463327  
H377     H      0.044310000000     0.947860000000     0.351560000000     0.0454528  
H378     H      0.013700000000     0.948050000000     0.320210000000     0.0380305  
H379     H      0.066510000000     0.472600000000     0.268920000000     0.0334722  
H380     H      0.096760000000     0.473320000000     0.300270000000     0.0464373  
H381     H      0.120230000000     0.447240000000     0.323750000000     0.0464231  
H382     H      0.151580000000     0.447970000000     0.354000000000     0.0334569  
H383     H      0.100260000000     0.972560000000     0.406780000000     0.0381927  
H384     H      0.068920000000     0.972730000000     0.376160000000     0.0455794  
H385     H      0.096460000000     0.445690000000     0.119910000000     0.0463378  
H386     H      0.066260000000     0.446270000000     0.151300000000     0.0377841  
H387     H      0.014020000000     0.973480000000     0.100730000000     0.0379259  
H388     H      0.044620000000     0.973730000000     0.069380000000     0.0452224  
H389     H      0.068700000000     0.948720000000     0.044160000000     0.0455125  
H390     H      0.100040000000     0.948980000000     0.013550000000     0.0381427  
H391     H      0.151770000000     0.471540000000     0.066860000000     0.0337807  
H392     H      0.120430000000     0.472120000000     0.097120000000     0.0459214  
H393     H      0.323610000000     0.973680000000     0.120140000000     0.0458852  
H394     H      0.353830000000     0.973290000000     0.151520000000     0.0379074  
H395     H      0.406650000000     0.448110000000     0.100490000000     0.0380308  
H396     H      0.376060000000     0.447730000000     0.069140000000     0.0451867  
H397     H      0.351360000000     0.472880000000     0.044440000000     0.0451938  
H398     H      0.320010000000     0.472510000000     0.013850000000     0.0379123  
H399     H      0.268970000000     0.947270000000     0.066630000000     0.0378416  
H400     H      0.300350000000     0.946870000000     0.096850000000     0.0459279  
H401     H      0.944870000000     0.596690000000     0.300930000000     0.0447919  
H402     H      0.944660000000     0.566410000000     0.269560000000     0.0342239  
H403     H      0.472260000000     0.514050000000     0.319810000000     0.0375144  
H404     H      0.473260000000     0.544670000000     0.351080000000     0.045418   
H405     H      0.448850000000     0.568960000000     0.376620000000     0.0453508  
H406     H      0.449860000000     0.600250000000     0.407210000000     0.0368605  
H407     H      0.972220000000     0.651800000000     0.353630000000     0.0331702  
H408     H      0.972020000000     0.620440000000     0.323330000000     0.0452027  
H409     H      0.947950000000     0.876410000000     0.351380000000     0.0454849  
H410     H      0.949110000000     0.906990000000     0.320090000000     0.0376618  
H411     H      0.474420000000     0.853960000000     0.269340000000     0.0345158  
H412     H      0.473990000000     0.823680000000     0.300710000000     0.0453488  
H413     H      0.446390000000     0.800750000000     0.323660000000     0.0453606  
H414     H      0.445950000000     0.769380000000     0.353940000000     0.0344836  
H415     H      0.971310000000     0.820130000000     0.406950000000     0.0376261  
H416     H      0.972480000000     0.851420000000     0.376360000000     0.0455239  
H417     H      0.975370000000     0.800960000000     0.096660000000     0.0448171  
H418     H      0.975610000000     0.769600000000     0.066370000000     0.0343252  
H419     H      0.448000000000     0.819850000000     0.014030000000     0.037297   
H420     H      0.446980000000     0.851120000000     0.044650000000     0.0452486  
H421     H      0.471370000000     0.876660000000     0.068940000000     0.0453695  
H422     H      0.470360000000     0.907240000000     0.100240000000     0.036974   
H423     H      0.948000000000     0.853650000000     0.151770000000     0.0331264  
H424     H      0.948200000000     0.823350000000     0.120410000000     0.0450609  
H425     H      0.448120000000     0.544360000000     0.069210000000     0.0451654  
H426     H      0.449020000000     0.513750000000     0.100480000000     0.0366353  
H427     H      0.973700000000     0.566740000000     0.151550000000     0.0328956  
H428     H      0.973670000000     0.597050000000     0.120200000000     0.0446189  
H429     H      0.946880000000     0.620240000000     0.097020000000     0.0446028  
H430     H      0.946820000000     0.651580000000     0.066720000000     0.03284    
H431     H      0.471450000000     0.600500000000     0.013720000000     0.0364916  
H432     H      0.472370000000     0.569230000000     0.044330000000     0.0451135  
H433     H      0.996930000000     0.497380000000     0.744500000000     0.210144   
H434     H      0.997570000000     0.923030000000     0.674490000000     0.203775   
H435     H      0.423480000000     0.923360000000     0.744510000000     0.210111   
H436     H      0.422840000000     0.497700000000     0.674480000000     0.203771   
H437     H      0.038290000000     0.917350000000     0.706930000000     0.125146   
H438     H      0.004680000000     0.878700000000     0.707340000000     0.185449   
H439     H      0.418240000000     0.886110000000     0.696780000000     0.147992   
H440     H      0.377650000000     0.920730000000     0.725360000000     0.199385   
H441     H      0.382140000000     0.503400000000     0.707010000000     0.125387   
H442     H      0.415740000000     0.542030000000     0.707230000000     0.185609   
H443     H      0.002190000000     0.534630000000     0.696860000000     0.147288   
H444     H      0.042720000000     0.500060000000     0.725290000000     0.199446   
H445     H      0.380330000000     0.918630000000     0.695520000000     0.203632   
H446     H      0.439310000000     0.560340000000     0.710870000000     0.203208   
H447     H      0.040090000000     0.502070000000     0.695430000000     0.203311   
H448     H      0.981100000000     0.860390000000     0.710900000000     0.203221   
H449     H      0.423420000000     0.744570000000     0.497350000000     0.209522   
H450     H      0.422720000000     0.674500000000     0.923070000000     0.203652   
H451     H      0.996870000000     0.744570000000     0.923330000000     0.210092   
H452     H      0.997570000000     0.674490000000     0.497600000000     0.203589   
H453     H      0.382070000000     0.707010000000     0.917340000000     0.125306   
H454     H      0.415620000000     0.707410000000     0.878710000000     0.185926   
H455     H      0.002040000000     0.696760000000     0.886050000000     0.147414   
H456     H      0.042770000000     0.725750000000     0.920860000000     0.199198   
H457     H      0.038190000000     0.707100000000     0.503350000000     0.125211   
H458     H      0.004660000000     0.707320000000     0.541960000000     0.185164   
H459     H      0.418230000000     0.696830000000     0.534630000000     0.147776   
H460     H      0.377560000000     0.725670000000     0.499870000000     0.199183   
H461     H      0.039920000000     0.695950000000     0.918370000000     0.203322   
H462     H      0.981090000000     0.710930000000     0.560280000000     0.203084   
H463     H      0.380360000000     0.695860000000     0.502270000000     0.203244   
H464     H      0.439200000000     0.710950000000     0.860390000000     0.203481   
H465     H      0.175950000000     0.497360000000     0.496980000000     0.209706   
H466     H      0.246030000000     0.922960000000     0.497620000000     0.203372   
H467     H      0.175960000000     0.923290000000     0.923590000000     0.209903   
H468     H      0.246030000000     0.497690000000     0.922950000000     0.203227   
H469     H      0.213440000000     0.917300000000     0.538340000000     0.125512   
H470     H      0.213590000000     0.878680000000     0.504740000000     0.185742   
H471     H      0.223190000000     0.886080000000     0.918170000000     0.148007   
H472     H      0.195240000000     0.920570000000     0.877840000000     0.199435   
H473     H      0.213520000000     0.503330000000     0.882200000000     0.125591   
H474     H      0.213520000000     0.541970000000     0.915820000000     0.185946   
H475     H      0.223250000000     0.534570000000     0.502380000000     0.147969   
H476     H      0.195160000000     0.500030000000     0.542770000000     0.199336   
H477     H      0.225120000000     0.918670000000     0.880360000000     0.203245   
H478     H      0.209770000000     0.560290000000     0.939370000000     0.203472   
H479     H      0.225030000000     0.502010000000     0.540200000000     0.203335   
H480     H      0.209780000000     0.860360000000     0.481200000000     0.203569   
H481     H      0.351320000000     0.876110000000     0.971210000000     0.0453055  
H482     H      0.320050000000     0.906740000000     0.971030000000     0.0366401  
H483     H      0.268900000000     0.854280000000     0.445390000000     0.0331359  
H484     H      0.300250000000     0.823980000000     0.444680000000     0.0457934  
H485     H      0.323270000000     0.800340000000     0.471110000000     0.0452508  
H486     H      0.353530000000     0.768980000000     0.471160000000     0.0334024  
H487     H      0.406860000000     0.820220000000     0.947570000000     0.0382157  
H488     H      0.376250000000     0.851560000000     0.946650000000     0.0455476  
H489     H      0.375960000000     0.569460000000     0.474890000000     0.0452463  
H490     H      0.406550000000     0.600800000000     0.473890000000     0.0381243  
H491     H      0.353750000000     0.651350000000     0.947740000000     0.0376145  
H492     H      0.323520000000     0.619970000000     0.947920000000     0.0451514  
H493     H      0.300030000000     0.596990000000     0.974700000000     0.0453116  
H494     H      0.268690000000     0.566670000000     0.974130000000     0.0331965  
H495     H      0.320260000000     0.513700000000     0.450430000000     0.0367971  
H496     H      0.351540000000     0.544330000000     0.450170000000     0.0452646  
H497     H      0.119540000000     0.824380000000     0.977770000000     0.0459836  
H498     H      0.150920000000     0.854650000000     0.977230000000     0.0345888  
H499     H      0.100620000000     0.906430000000     0.448680000000     0.0374112  
H500     H      0.069320000000     0.875800000000     0.448410000000     0.0453439  
H501     H      0.043730000000     0.851830000000     0.473100000000     0.0455867  
H502     H      0.013160000000     0.820460000000     0.472080000000     0.0382236  
H503     H      0.067050000000     0.768790000000     0.950790000000     0.034073   
H504     H      0.097300000000     0.800160000000     0.950990000000     0.0457655  
H505     H      0.043980000000     0.569160000000     0.446630000000     0.0452712  
H506     H      0.013420000000     0.600520000000     0.447760000000     0.0380581  
H507     H      0.066870000000     0.651560000000     0.971600000000     0.0379684  
H508     H      0.097080000000     0.620170000000     0.971220000000     0.0457416  
H509     H      0.119770000000     0.596620000000     0.944040000000     0.0454962  
H510     H      0.151140000000     0.566340000000     0.944390000000     0.0345402  
H511     H      0.100390000000     0.513980000000     0.471060000000     0.0374341  
H512     H      0.069090000000     0.544600000000     0.471470000000     0.0452049  
H513     H      0.323350000000     0.448730000000     0.800070000000     0.0459508  
H514     H      0.353600000000     0.449290000000     0.768730000000     0.0338452  
H515     H      0.406950000000     0.971790000000     0.820430000000     0.0383034  
H516     H      0.376350000000     0.972070000000     0.851780000000     0.0456376  
H517     H      0.351130000000     0.947050000000     0.875850000000     0.0453463  
H518     H      0.319770000000     0.947290000000     0.906460000000     0.0381757  
H519     H      0.269190000000     0.474560000000     0.854270000000     0.0377371  
H520     H      0.300580000000     0.475150000000     0.824060000000     0.0463269  
H521     H      0.044310000000     0.947860000000     0.851560000000     0.0454579  
H522     H      0.013700000000     0.948050000000     0.820210000000     0.0380319  
H523     H      0.066510000000     0.472600000000     0.768920000000     0.0334745  
H524     H      0.096760000000     0.473320000000     0.800270000000     0.0464174  
H525     H      0.120230000000     0.447240000000     0.823750000000     0.0464202  
H526     H      0.151580000000     0.447970000000     0.854000000000     0.033454   
H527     H      0.100260000000     0.972560000000     0.906780000000     0.0382046  
H528     H      0.068920000000     0.972730000000     0.876160000000     0.0455867  
H529     H      0.096460000000     0.445690000000     0.619910000000     0.0463432  
H530     H      0.066260000000     0.446270000000     0.651300000000     0.0377788  
H531     H      0.014020000000     0.973480000000     0.600730000000     0.0379471  
H532     H      0.044620000000     0.973730000000     0.569380000000     0.0452714  
H533     H      0.068700000000     0.948720000000     0.544160000000     0.0455942  
H534     H      0.100040000000     0.948980000000     0.513550000000     0.0382846  
H535     H      0.151770000000     0.471540000000     0.566860000000     0.0337711  
H536     H      0.120430000000     0.472110000000     0.597120000000     0.0459581  
H537     H      0.323610000000     0.973680000000     0.620140000000     0.0458893  
H538     H      0.353830000000     0.973290000000     0.651520000000     0.0379136  
H539     H      0.406650000000     0.448110000000     0.600490000000     0.0380624  
H540     H      0.376060000000     0.447730000000     0.569130000000     0.0451916  
H541     H      0.351360000000     0.472880000000     0.544440000000     0.045272   
H542     H      0.320010000000     0.472510000000     0.513850000000     0.0380485  
H543     H      0.268970000000     0.947270000000     0.566630000000     0.0378321  
H544     H      0.300350000000     0.946860000000     0.596850000000     0.0459411  
H545     H      0.944870000000     0.596690000000     0.800930000000     0.0447715  
H546     H      0.944660000000     0.566410000000     0.769560000000     0.0342446  
H547     H      0.472260000000     0.514050000000     0.819810000000     0.0375218  
H548     H      0.473260000000     0.544670000000     0.851080000000     0.0454172  
H549     H      0.448850000000     0.568960000000     0.876620000000     0.0453597  
H550     H      0.449860000000     0.600250000000     0.907210000000     0.0368718  
H551     H      0.972220000000     0.651800000000     0.853630000000     0.033164   
H552     H      0.972020000000     0.620440000000     0.823330000000     0.0451987  
H553     H      0.947950000000     0.876410000000     0.851380000000     0.0454837  
H554     H      0.949110000000     0.906990000000     0.820090000000     0.0376644  
H555     H      0.474420000000     0.853960000000     0.769340000000     0.0345169  
H556     H      0.473990000000     0.823680000000     0.800710000000     0.0453356  
H557     H      0.446390000000     0.800750000000     0.823660000000     0.0453579  
H558     H      0.445950000000     0.769380000000     0.853940000000     0.034479   
H559     H      0.971310000000     0.820130000000     0.906950000000     0.0376377  
H560     H      0.972480000000     0.851420000000     0.876360000000     0.0455332  
H561     H      0.975370000000     0.800960000000     0.596660000000     0.0448427  
H562     H      0.975610000000     0.769600000000     0.566370000000     0.0343077  
H563     H      0.448000000000     0.819850000000     0.514030000000     0.0374323  
H564     H      0.446980000000     0.851120000000     0.544650000000     0.0453322  
H565     H      0.471370000000     0.876660000000     0.568940000000     0.0454219  
H566     H      0.470360000000     0.907240000000     0.600240000000     0.0369869  
H567     H      0.948000000000     0.853650000000     0.651770000000     0.0331196  
H568     H      0.948200000000     0.823350000000     0.620410000000     0.0450724  
H569     H      0.448120000000     0.544360000000     0.569210000000     0.0452168  
H570     H      0.449020000000     0.513750000000     0.600480000000     0.0366565  
H571     H      0.973700000000     0.566740000000     0.651550000000     0.0328979  
H572     H      0.973670000000     0.597050000000     0.620200000000     0.0446268  
H573     H      0.946880000000     0.620240000000     0.597020000000     0.0446248  
H574     H      0.946820000000     0.651580000000     0.566720000000     0.0328342  
H575     H      0.471450000000     0.600500000000     0.513720000000     0.036636   
H576     H      0.472380000000     0.569230000000     0.544330000000     0.0451788  
H577     H      0.496930000000     0.997380000000     0.244500000000     0.210182   
H578     H      0.497570000000     0.423030000000     0.174490000000     0.203648   
H579     H      0.923470000000     0.423360000000     0.244510000000     0.210089   
H580     H      0.922840000000     0.997700000000     0.174480000000     0.203924   
H581     H      0.538290000000     0.417350000000     0.206940000000     0.125329   
H582     H      0.504680000000     0.378700000000     0.207340000000     0.185937   
H583     H      0.918240000000     0.386110000000     0.196780000000     0.147848   
H584     H      0.877650000000     0.420730000000     0.225360000000     0.199458   
H585     H      0.882140000000     0.003400000000     0.207010000000     0.124828   
H586     H      0.915730000000     0.042030000000     0.207230000000     0.185474   
H587     H      0.502190000000     0.034630000000     0.196860000000     0.147788   
H588     H      0.542720000000     0.000060000000     0.225290000000     0.198766   
H589     H      0.880330000000     0.418620000000     0.195520000000     0.203579   
H590     H      0.939310000000     0.060340000000     0.210870000000     0.203068   
H591     H      0.540090000000     0.002070000000     0.195430000000     0.202646   
H592     H      0.481090000000     0.360390000000     0.210900000000     0.203158   
H593     H      0.923420000000     0.244570000000     0.997340000000     0.209978   
H594     H      0.922720000000     0.174500000000     0.423070000000     0.203661   
H595     H      0.496870000000     0.244570000000     0.423330000000     0.209995   
H596     H      0.497570000000     0.174490000000     0.997600000000     0.20359    
H597     H      0.882070000000     0.207010000000     0.417340000000     0.125311   
H598     H      0.915610000000     0.207410000000     0.378710000000     0.185623   
H599     H      0.502040000000     0.196760000000     0.386050000000     0.14774    
H600     H      0.542770000000     0.225750000000     0.420860000000     0.19929    
H601     H      0.538190000000     0.207100000000     0.003350000000     0.124815   
H602     H      0.504660000000     0.207320000000     0.041960000000     0.185587   
H603     H      0.918230000000     0.196830000000     0.034630000000     0.147768   
H604     H      0.877560000000     0.225670000000     0.999870000000     0.199137   
H605     H      0.539920000000     0.195950000000     0.418370000000     0.203401   
H606     H      0.481090000000     0.210930000000     0.060280000000     0.203124   
H607     H      0.880360000000     0.195860000000     0.002270000000     0.202686   
H608     H      0.939200000000     0.210940000000     0.360390000000     0.203431   
H609     H      0.675950000000     0.997360000000     0.996980000000     0.209943   
H610     H      0.746030000000     0.422960000000     0.997620000000     0.203506   
H611     H      0.675960000000     0.423290000000     0.423590000000     0.2101     
H612     H      0.746020000000     0.997700000000     0.422960000000     0.203561   
H613     H      0.713440000000     0.417300000000     0.038340000000     0.125428   
H614     H      0.713590000000     0.378680000000     0.004740000000     0.185235   
H615     H      0.723190000000     0.386080000000     0.418170000000     0.148013   
H616     H      0.695240000000     0.420570000000     0.377840000000     0.199437   
H617     H      0.713520000000     0.003340000000     0.382200000000     0.124867   
H618     H      0.713520000000     0.041970000000     0.415820000000     0.185526   
H619     H      0.723250000000     0.034570000000     0.002380000000     0.14737    
H620     H      0.695160000000     0.000030000000     0.042760000000     0.198597   
H621     H      0.725120000000     0.418670000000     0.380360000000     0.203249   
H622     H      0.709770000000     0.060290000000     0.439370000000     0.203484   
H623     H      0.725030000000     0.002010000000     0.040200000000     0.202567   
H624     H      0.709780000000     0.360360000000     0.981200000000     0.203514   
H625     H      0.851320000000     0.376110000000     0.471210000000     0.0452467  
H626     H      0.820040000000     0.406740000000     0.471030000000     0.0365603  
H627     H      0.768900000000     0.354280000000     0.945390000000     0.0331553  
H628     H      0.800250000000     0.323980000000     0.944680000000     0.0458139  
H629     H      0.823270000000     0.300340000000     0.971110000000     0.0452818  
H630     H      0.853530000000     0.268980000000     0.971150000000     0.0334682  
H631     H      0.906850000000     0.320220000000     0.447570000000     0.0382084  
H632     H      0.876250000000     0.351560000000     0.446650000000     0.0455157  
H633     H      0.875960000000     0.069460000000     0.974880000000     0.0452796  
H634     H      0.906550000000     0.100800000000     0.973890000000     0.0381818  
H635     H      0.853750000000     0.151350000000     0.447740000000     0.0375771  
H636     H      0.823520000000     0.119970000000     0.447920000000     0.0451275  
H637     H      0.800030000000     0.096990000000     0.474700000000     0.0452215  
H638     H      0.768690000000     0.066670000000     0.474130000000     0.033163   
H639     H      0.820260000000     0.013700000000     0.950430000000     0.0366476  
H640     H      0.851540000000     0.044320000000     0.950170000000     0.0452368  
H641     H      0.619540000000     0.324380000000     0.477760000000     0.0459561  
H642     H      0.650920000000     0.354650000000     0.477230000000     0.0345365  
H643     H      0.600620000000     0.406430000000     0.948680000000     0.0374544  
H644     H      0.569320000000     0.375810000000     0.948410000000     0.0453747  
H645     H      0.543730000000     0.351830000000     0.973100000000     0.0457384  
H646     H      0.513160000000     0.320470000000     0.972080000000     0.0384038  
H647     H      0.567050000000     0.268800000000     0.450790000000     0.0340409  
H648     H      0.597300000000     0.300160000000     0.450990000000     0.0457994  
H649     H      0.543980000000     0.069160000000     0.946630000000     0.0453187  
H650     H      0.513420000000     0.100520000000     0.947760000000     0.0382039  
H651     H      0.566870000000     0.151560000000     0.471600000000     0.0379137  
H652     H      0.597080000000     0.120170000000     0.471220000000     0.0457093  
H653     H      0.619770000000     0.096620000000     0.444040000000     0.0454692  
H654     H      0.651140000000     0.066340000000     0.444390000000     0.0345389  
H655     H      0.600380000000     0.013980000000     0.971060000000     0.0373448  
H656     H      0.569090000000     0.044600000000     0.971470000000     0.0452307  
H657     H      0.823350000000     0.948730000000     0.300070000000     0.0459941  
H658     H      0.853600000000     0.949290000000     0.268730000000     0.0338268  
H659     H      0.906960000000     0.471790000000     0.320430000000     0.038233   
H660     H      0.876350000000     0.472070000000     0.351780000000     0.0455659  
H661     H      0.851130000000     0.447060000000     0.375850000000     0.0453344  
H662     H      0.819770000000     0.447290000000     0.406460000000     0.0381323  
H663     H      0.769190000000     0.974560000000     0.354270000000     0.0377984  
H664     H      0.800580000000     0.975150000000     0.324060000000     0.0463875  
H665     H      0.544310000000     0.447860000000     0.351560000000     0.045508   
H666     H      0.513700000000     0.448040000000     0.320210000000     0.0381351  
H667     H      0.566510000000     0.972600000000     0.268920000000     0.0335531  
H668     H      0.596760000000     0.973320000000     0.300270000000     0.0465243  
H669     H      0.620230000000     0.947240000000     0.323750000000     0.046449   
H670     H      0.651580000000     0.947970000000     0.354000000000     0.0334746  
H671     H      0.600260000000     0.472560000000     0.406780000000     0.0381389  
H672     H      0.568920000000     0.472730000000     0.376160000000     0.0455518  
H673     H      0.596460000000     0.945690000000     0.119910000000     0.0463857  
H674     H      0.566260000000     0.946270000000     0.151300000000     0.0377926  
H675     H      0.514020000000     0.473480000000     0.100730000000     0.0379871  
H676     H      0.544620000000     0.473730000000     0.069380000000     0.0452222  
H677     H      0.568700000000     0.448720000000     0.044160000000     0.0455417  
H678     H      0.600040000000     0.448980000000     0.013550000000     0.0381182  
H679     H      0.651770000000     0.971540000000     0.066860000000     0.0338653  
H680     H      0.620430000000     0.972110000000     0.097120000000     0.0459909  
H681     H      0.823610000000     0.473680000000     0.120140000000     0.0458198  
H682     H      0.853830000000     0.473290000000     0.151520000000     0.0378299  
H683     H      0.906660000000     0.948110000000     0.100490000000     0.0380593  
H684     H      0.876060000000     0.947730000000     0.069140000000     0.0452301  
H685     H      0.851360000000     0.972880000000     0.044440000000     0.0452722  
H686     H      0.820010000000     0.972510000000     0.013850000000     0.0379981  
H687     H      0.768970000000     0.447270000000     0.066630000000     0.0378025  
H688     H      0.800350000000     0.446870000000     0.096850000000     0.0458986  
H689     H      0.444870000000     0.096690000000     0.300930000000     0.0447535  
H690     H      0.444660000000     0.066410000000     0.269560000000     0.0342192  
H691     H      0.972260000000     0.014050000000     0.319810000000     0.0374178  
H692     H      0.973260000000     0.044670000000     0.351080000000     0.0453952  
H693     H      0.948850000000     0.068960000000     0.376620000000     0.0453133  
H694     H      0.949860000000     0.100250000000     0.407210000000     0.0368813  
H695     H      0.472220000000     0.151800000000     0.353630000000     0.0331092  
H696     H      0.472020000000     0.120440000000     0.323330000000     0.0451418  
H697     H      0.447950000000     0.376410000000     0.351380000000     0.045438   
H698     H      0.449110000000     0.406990000000     0.320090000000     0.0376439  
H699     H      0.974420000000     0.353960000000     0.269340000000     0.0345853  
H700     H      0.974000000000     0.323680000000     0.300710000000     0.0453935  
H701     H      0.946390000000     0.300750000000     0.323660000000     0.0453813  
H702     H      0.945950000000     0.269380000000     0.353940000000     0.0345146  
H703     H      0.471310000000     0.320130000000     0.406950000000     0.0375786  
H704     H      0.472480000000     0.351420000000     0.376360000000     0.0454494  
H705     H      0.475370000000     0.300960000000     0.096660000000     0.0447745  
H706     H      0.475610000000     0.269600000000     0.066370000000     0.0342754  
H707     H      0.948000000000     0.319850000000     0.014030000000     0.0373148  
H708     H      0.946980000000     0.351120000000     0.044650000000     0.0452698  
H709     H      0.971370000000     0.376660000000     0.068940000000     0.0454326  
H710     H      0.970370000000     0.407240000000     0.100240000000     0.0370114  
H711     H      0.448000000000     0.353650000000     0.151770000000     0.033115   
H712     H      0.448200000000     0.323350000000     0.120410000000     0.0450976  
H713     H      0.948120000000     0.044360000000     0.069210000000     0.0451171  
H714     H      0.949020000000     0.013750000000     0.100480000000     0.0364991  
H715     H      0.473700000000     0.066750000000     0.151550000000     0.032829   
H716     H      0.473670000000     0.097050000000     0.120200000000     0.0445458  
H717     H      0.446880000000     0.120240000000     0.097020000000     0.0445639  
H718     H      0.446820000000     0.151590000000     0.066720000000     0.032852   
H719     H      0.971450000000     0.100500000000     0.013720000000     0.0365461  
H720     H      0.972370000000     0.069230000000     0.044330000000     0.0451154  
H721     H      0.496930000000     0.997380000000     0.744500000000     0.21018    
H722     H      0.497570000000     0.423030000000     0.674490000000     0.203646   
H723     H      0.923470000000     0.423360000000     0.744510000000     0.210083   
H724     H      0.922840000000     0.997700000000     0.674480000000     0.203923   
H725     H      0.538290000000     0.417350000000     0.706930000000     0.125252   
H726     H      0.504680000000     0.378700000000     0.707340000000     0.18594    
H727     H      0.918240000000     0.386110000000     0.696780000000     0.148039   
H728     H      0.877650000000     0.420730000000     0.725360000000     0.199452   
H729     H      0.882140000000     0.003400000000     0.707010000000     0.124828   
H730     H      0.915730000000     0.042030000000     0.707230000000     0.185473   
H731     H      0.502190000000     0.034630000000     0.696860000000     0.147787   
H732     H      0.542720000000     0.000060000000     0.725290000000     0.198763   
H733     H      0.880330000000     0.418620000000     0.695520000000     0.203576   
H734     H      0.939310000000     0.060340000000     0.710870000000     0.203065   
H735     H      0.540090000000     0.002070000000     0.695430000000     0.202646   
H736     H      0.481090000000     0.360390000000     0.710900000000     0.203158   
H737     H      0.923420000000     0.244570000000     0.497340000000     0.209884   
H738     H      0.922720000000     0.174500000000     0.923070000000     0.203652   
H739     H      0.496870000000     0.244570000000     0.923330000000     0.209986   
H740     H      0.497570000000     0.174490000000     0.497600000000     0.203462   
H741     H      0.882070000000     0.207010000000     0.917340000000     0.125297   
H742     H      0.915620000000     0.207410000000     0.878710000000     0.185929   
H743     H      0.502040000000     0.196760000000     0.886050000000     0.147927   
H744     H      0.542770000000     0.225750000000     0.920860000000     0.199288   
H745     H      0.538190000000     0.207100000000     0.503350000000     0.125303   
H746     H      0.504660000000     0.207320000000     0.541960000000     0.185679   
H747     H      0.918230000000     0.196830000000     0.534630000000     0.147775   
H748     H      0.877560000000     0.225670000000     0.499870000000     0.199149   
H749     H      0.539920000000     0.195950000000     0.918370000000     0.203395   
H750     H      0.481090000000     0.210930000000     0.560280000000     0.203147   
H751     H      0.880360000000     0.195860000000     0.502270000000     0.203216   
H752     H      0.939200000000     0.210940000000     0.860390000000     0.203523   
H753     H      0.675950000000     0.997360000000     0.496980000000     0.209844   
H754     H      0.746030000000     0.422960000000     0.497620000000     0.203376   
H755     H      0.675960000000     0.423290000000     0.923590000000     0.210095   
H756     H      0.746020000000     0.997700000000     0.922960000000     0.203556   
H757     H      0.713440000000     0.417300000000     0.538340000000     0.125517   
H758     H      0.713590000000     0.378680000000     0.504740000000     0.185745   
H759     H      0.723190000000     0.386080000000     0.918170000000     0.14801    
H760     H      0.695240000000     0.420570000000     0.877840000000     0.199432   
H761     H      0.713520000000     0.003340000000     0.882200000000     0.124863   
H762     H      0.713520000000     0.041970000000     0.915820000000     0.185524   
H763     H      0.723250000000     0.034570000000     0.502380000000     0.147877   
H764     H      0.695160000000     0.000030000000     0.542770000000     0.198415   
H765     H      0.725120000000     0.418670000000     0.880360000000     0.203244   
H766     H      0.709770000000     0.060290000000     0.939370000000     0.203501   
H767     H      0.725030000000     0.002010000000     0.540200000000     0.202421   
H768     H      0.709780000000     0.360360000000     0.481200000000     0.203576   
H769     H      0.851320000000     0.376110000000     0.971210000000     0.0453134  
H770     H      0.820040000000     0.406740000000     0.971030000000     0.0366221  
H771     H      0.768900000000     0.354280000000     0.445390000000     0.033138   
H772     H      0.800250000000     0.323980000000     0.444680000000     0.0458019  
H773     H      0.823270000000     0.300340000000     0.471110000000     0.0452344  
H774     H      0.853530000000     0.268980000000     0.471160000000     0.0334136  
H775     H      0.906850000000     0.320220000000     0.947570000000     0.0382402  
H776     H      0.876250000000     0.351560000000     0.946650000000     0.0455379  
H777     H      0.875960000000     0.069460000000     0.474890000000     0.0451974  
H778     H      0.906550000000     0.100800000000     0.473890000000     0.0381128  
H779     H      0.853750000000     0.151350000000     0.947740000000     0.037608   
H780     H      0.823520000000     0.119970000000     0.947920000000     0.0451371  
H781     H      0.800030000000     0.096990000000     0.974700000000     0.0452794  
H782     H      0.768690000000     0.066670000000     0.974130000000     0.0332143  
H783     H      0.820260000000     0.013700000000     0.450430000000     0.0366174  
H784     H      0.851540000000     0.044330000000     0.450170000000     0.0452269  
H785     H      0.619540000000     0.324380000000     0.977770000000     0.0459959  
H786     H      0.650920000000     0.354650000000     0.977230000000     0.0345972  
H787     H      0.600620000000     0.406430000000     0.448680000000     0.0374228  
H788     H      0.569320000000     0.375810000000     0.448410000000     0.0453706  
H789     H      0.543730000000     0.351830000000     0.473100000000     0.0456722  
H790     H      0.513160000000     0.320470000000     0.472080000000     0.0383385  
H791     H      0.567050000000     0.268800000000     0.950800000000     0.0340694  
H792     H      0.597300000000     0.300160000000     0.950990000000     0.0458009  
H793     H      0.543980000000     0.069160000000     0.446630000000     0.0452956  
H794     H      0.513420000000     0.100520000000     0.447760000000     0.0381763  
H795     H      0.566870000000     0.151560000000     0.971600000000     0.0379601  
H796     H      0.597080000000     0.120170000000     0.971220000000     0.0457579  
H797     H      0.619770000000     0.096620000000     0.944040000000     0.0454805  
H798     H      0.651140000000     0.066340000000     0.944390000000     0.0345503  
H799     H      0.600380000000     0.013980000000     0.471060000000     0.0372816  
H800     H      0.569090000000     0.044600000000     0.471470000000     0.0451658  
H801     H      0.823350000000     0.948730000000     0.800070000000     0.0459853  
H802     H      0.853600000000     0.949290000000     0.768720000000     0.0338285  
H803     H      0.906960000000     0.471790000000     0.820430000000     0.0382324  
H804     H      0.876350000000     0.472070000000     0.851780000000     0.0455737  
H805     H      0.851130000000     0.447060000000     0.875850000000     0.0453396  
H806     H      0.819770000000     0.447290000000     0.906460000000     0.0381435  
H807     H      0.769190000000     0.974560000000     0.854270000000     0.0377934  
H808     H      0.800580000000     0.975150000000     0.824060000000     0.0463825  
H809     H      0.544310000000     0.447860000000     0.851560000000     0.0455129  
H810     H      0.513700000000     0.448040000000     0.820210000000     0.0381368  
H811     H      0.566510000000     0.972600000000     0.768920000000     0.0335532  
H812     H      0.596760000000     0.973320000000     0.800270000000     0.0465041  
H813     H      0.620230000000     0.947240000000     0.823750000000     0.0464458  
H814     H      0.651580000000     0.947970000000     0.854000000000     0.0334703  
H815     H      0.600260000000     0.472560000000     0.906780000000     0.0381514  
H816     H      0.568920000000     0.472730000000     0.876160000000     0.0455592  
H817     H      0.596460000000     0.945690000000     0.619910000000     0.0464108  
H818     H      0.566260000000     0.946270000000     0.651300000000     0.0377902  
H819     H      0.514020000000     0.473480000000     0.600730000000     0.0380078  
H820     H      0.544620000000     0.473730000000     0.569380000000     0.0452719  
H821     H      0.568700000000     0.448720000000     0.544160000000     0.045621   
H822     H      0.600040000000     0.448980000000     0.513550000000     0.0382603  
H823     H      0.651770000000     0.971540000000     0.566860000000     0.0338651  
H824     H      0.620430000000     0.972110000000     0.597120000000     0.0460128  
H825     H      0.823610000000     0.473680000000     0.620140000000     0.0458321  
H826     H      0.853830000000     0.473290000000     0.651520000000     0.0378306  
H827     H      0.906660000000     0.948110000000     0.600490000000     0.0380914  
H828     H      0.876060000000     0.947730000000     0.569130000000     0.0452344  
H829     H      0.851360000000     0.972880000000     0.544440000000     0.0453378  
H830     H      0.820010000000     0.972510000000     0.513850000000     0.0381641  
H831     H      0.768970000000     0.447270000000     0.566630000000     0.0378139  
H832     H      0.800350000000     0.446860000000     0.596860000000     0.0458555  
H833     H      0.444870000000     0.096690000000     0.800930000000     0.0447339  
H834     H      0.444660000000     0.066410000000     0.769560000000     0.0342403  
H835     H      0.972260000000     0.014050000000     0.819810000000     0.0374247  
H836     H      0.973260000000     0.044670000000     0.851080000000     0.0453942  
H837     H      0.948850000000     0.068960000000     0.876620000000     0.045322   
H838     H      0.949860000000     0.100250000000     0.907210000000     0.0368925  
H839     H      0.472220000000     0.151800000000     0.853630000000     0.0331055  
H840     H      0.472020000000     0.120440000000     0.823330000000     0.0451382  
H841     H      0.447950000000     0.376410000000     0.851380000000     0.0454371  
H842     H      0.449110000000     0.406990000000     0.820090000000     0.0376475  
H843     H      0.974420000000     0.353960000000     0.769340000000     0.0345826  
H844     H      0.974000000000     0.323680000000     0.800710000000     0.045389   
H845     H      0.946390000000     0.300750000000     0.823660000000     0.0453754  
H846     H      0.945950000000     0.269380000000     0.853940000000     0.0345084  
H847     H      0.471310000000     0.320130000000     0.906950000000     0.03759    
H848     H      0.472480000000     0.351420000000     0.876360000000     0.0454586  
H849     H      0.475370000000     0.300960000000     0.596660000000     0.0448008  
H850     H      0.475610000000     0.269600000000     0.566370000000     0.0342541  
H851     H      0.948000000000     0.319850000000     0.514030000000     0.0374514  
H852     H      0.946980000000     0.351120000000     0.544650000000     0.0453532  
H853     H      0.971370000000     0.376660000000     0.568940000000     0.0454846  
H854     H      0.970370000000     0.407240000000     0.600240000000     0.0370238  
H855     H      0.448000000000     0.353650000000     0.651770000000     0.0331085  
H856     H      0.448200000000     0.323350000000     0.620410000000     0.0451092  
H857     H      0.948120000000     0.044360000000     0.569210000000     0.0451717  
H858     H      0.949020000000     0.013750000000     0.600480000000     0.0365078  
H859     H      0.473700000000     0.066750000000     0.651550000000     0.0328204  
H860     H      0.473670000000     0.097050000000     0.620200000000     0.0445605  
H861     H      0.446880000000     0.120240000000     0.597020000000     0.0445835  
H862     H      0.446820000000     0.151590000000     0.566720000000     0.0328451  
H863     H      0.971450000000     0.100500000000     0.513720000000     0.0366875  
H864     H      0.972370000000     0.069230000000     0.544330000000     0.0451943  
H865     H      0.496930000000     0.497380000000     0.244500000000     0.210041   
H866     H      0.497570000000     0.923030000000     0.174490000000     0.203647   
H867     H      0.923470000000     0.923350000000     0.244510000000     0.209716   
H868     H      0.922840000000     0.497700000000     0.174480000000     0.203759   
H869     H      0.538290000000     0.917350000000     0.206940000000     0.125322   
H870     H      0.504680000000     0.878700000000     0.207340000000     0.185952   
H871     H      0.918240000000     0.886110000000     0.196780000000     0.14778    
H872     H      0.877650000000     0.920730000000     0.225360000000     0.199522   
H873     H      0.882140000000     0.503400000000     0.207010000000     0.125374   
H874     H      0.915740000000     0.542030000000     0.207230000000     0.185883   
H875     H      0.502190000000     0.534630000000     0.196860000000     0.147868   
H876     H      0.542720000000     0.500060000000     0.225280000000     0.199803   
H877     H      0.880330000000     0.918630000000     0.195520000000     0.203723   
H878     H      0.939310000000     0.560340000000     0.210870000000     0.203193   
H879     H      0.540090000000     0.502070000000     0.195430000000     0.203468   
H880     H      0.481100000000     0.860390000000     0.210900000000     0.203259   
H881     H      0.923420000000     0.744570000000     0.997340000000     0.209779   
H882     H      0.922720000000     0.674500000000     0.423070000000     0.203663   
H883     H      0.496870000000     0.744570000000     0.423330000000     0.209992   
H884     H      0.497570000000     0.674490000000     0.997600000000     0.203593   
H885     H      0.882070000000     0.707010000000     0.417340000000     0.12531    
H886     H      0.915610000000     0.707410000000     0.378710000000     0.185614   
H887     H      0.502040000000     0.696760000000     0.386050000000     0.147932   
H888     H      0.542770000000     0.725750000000     0.420860000000     0.199281   
H889     H      0.538190000000     0.707100000000     0.003350000000     0.124814   
H890     H      0.504660000000     0.707320000000     0.041960000000     0.185587   
H891     H      0.918230000000     0.696830000000     0.034630000000     0.147771   
H892     H      0.877560000000     0.725670000000     0.999870000000     0.199138   
H893     H      0.539920000000     0.695950000000     0.418370000000     0.203397   
H894     H      0.481090000000     0.710930000000     0.060280000000     0.203122   
H895     H      0.880360000000     0.695860000000     0.002270000000     0.202687   
H896     H      0.939200000000     0.710950000000     0.360390000000     0.203405   
H897     H      0.675950000000     0.497360000000     0.996980000000     0.209795   
H898     H      0.746030000000     0.922960000000     0.997620000000     0.203491   
H899     H      0.675960000000     0.923290000000     0.423590000000     0.209901   
H900     H      0.746020000000     0.497690000000     0.422950000000     0.203417   
H901     H      0.713440000000     0.917300000000     0.038340000000     0.125422   
H902     H      0.713590000000     0.878680000000     0.004740000000     0.185229   
H903     H      0.723190000000     0.886080000000     0.418170000000     0.148008   
H904     H      0.695240000000     0.920570000000     0.377840000000     0.19944    
H905     H      0.713520000000     0.503340000000     0.382200000000     0.125426   
H906     H      0.713520000000     0.541970000000     0.415820000000     0.185632   
H907     H      0.723250000000     0.534570000000     0.002380000000     0.147456   
H908     H      0.695160000000     0.500030000000     0.042760000000     0.199372   
H909     H      0.725120000000     0.918670000000     0.380360000000     0.203248   
H910     H      0.709770000000     0.560290000000     0.439370000000     0.203512   
H911     H      0.725030000000     0.502010000000     0.040200000000     0.203306   
H912     H      0.709780000000     0.860360000000     0.981200000000     0.203506   
H913     H      0.851320000000     0.876110000000     0.471210000000     0.0452426  
H914     H      0.820040000000     0.906740000000     0.471030000000     0.0365904  
H915     H      0.768900000000     0.854280000000     0.945390000000     0.0331485  
H916     H      0.800250000000     0.823980000000     0.944680000000     0.0458048  
H917     H      0.823270000000     0.800340000000     0.971110000000     0.0452872  
H918     H      0.853530000000     0.768980000000     0.971150000000     0.0334575  
H919     H      0.906860000000     0.820220000000     0.447570000000     0.0381843  
H920     H      0.876250000000     0.851550000000     0.446650000000     0.0455787  
H921     H      0.875960000000     0.569460000000     0.974880000000     0.0453327  
H922     H      0.906550000000     0.600800000000     0.973890000000     0.0382058  
H923     H      0.853750000000     0.651350000000     0.447740000000     0.0375788  
H924     H      0.823520000000     0.619970000000     0.447920000000     0.0451358  
H925     H      0.800030000000     0.596990000000     0.474700000000     0.0452452  
H926     H      0.768690000000     0.566670000000     0.474130000000     0.0331502  
H927     H      0.820260000000     0.513690000000     0.950430000000     0.0367972  
H928     H      0.851540000000     0.544330000000     0.950170000000     0.0453478  
H929     H      0.619540000000     0.824380000000     0.477760000000     0.0459535  
H930     H      0.650920000000     0.854650000000     0.477230000000     0.0345334  
H931     H      0.600620000000     0.906430000000     0.948680000000     0.0374652  
H932     H      0.569320000000     0.875800000000     0.948410000000     0.0453974  
H933     H      0.543730000000     0.851830000000     0.973100000000     0.0457366  
H934     H      0.513160000000     0.820460000000     0.972080000000     0.0384252  
H935     H      0.567050000000     0.768790000000     0.450790000000     0.0340599  
H936     H      0.597300000000     0.800160000000     0.450990000000     0.0457777  
H937     H      0.543980000000     0.569160000000     0.946630000000     0.0453701  
H938     H      0.513420000000     0.600520000000     0.947760000000     0.038232   
H939     H      0.566870000000     0.651560000000     0.471600000000     0.0379152  
H940     H      0.597080000000     0.620170000000     0.471220000000     0.0457163  
H941     H      0.619770000000     0.596620000000     0.444040000000     0.0454941  
H942     H      0.651140000000     0.566340000000     0.444390000000     0.0345326  
H943     H      0.600380000000     0.513980000000     0.971060000000     0.0375062  
H944     H      0.569090000000     0.544600000000     0.971470000000     0.0453227  
H945     H      0.823350000000     0.448730000000     0.300070000000     0.0459686  
H946     H      0.853600000000     0.449290000000     0.268730000000     0.0338245  
H947     H      0.906960000000     0.971790000000     0.320430000000     0.038307   
H948     H      0.876350000000     0.972070000000     0.351780000000     0.0456456  
H949     H      0.851130000000     0.947050000000     0.375850000000     0.0453435  
H950     H      0.819770000000     0.947290000000     0.406460000000     0.0381654  
H951     H      0.769190000000     0.474560000000     0.354270000000     0.0377369  
H952     H      0.800580000000     0.475150000000     0.324060000000     0.0463268  
H953     H      0.544310000000     0.947860000000     0.351560000000     0.0455334  
H954     H      0.513700000000     0.948050000000     0.320210000000     0.0381722  
H955     H      0.566510000000     0.472600000000     0.268920000000     0.0334649  
H956     H      0.596760000000     0.473320000000     0.300270000000     0.046444   
H957     H      0.620230000000     0.447240000000     0.323750000000     0.0464324  
H958     H      0.651580000000     0.447970000000     0.354000000000     0.0334591  
H959     H      0.600260000000     0.972560000000     0.406780000000     0.0382152  
H960     H      0.568920000000     0.972730000000     0.376160000000     0.045629   
H961     H      0.596460000000     0.445690000000     0.119910000000     0.0463641  
H962     H      0.566260000000     0.446270000000     0.151300000000     0.0377657  
H963     H      0.514020000000     0.973480000000     0.100730000000     0.0380678  
H964     H      0.544620000000     0.973730000000     0.069380000000     0.0453018  
H965     H      0.568700000000     0.948720000000     0.044160000000     0.0455643  
H966     H      0.600040000000     0.948980000000     0.013550000000     0.0381635  
H967     H      0.651770000000     0.471540000000     0.066860000000     0.0337798  
H968     H      0.620430000000     0.472110000000     0.097120000000     0.0459412  
H969     H      0.823610000000     0.973680000000     0.120140000000     0.0458909  
H970     H      0.853830000000     0.973290000000     0.151520000000     0.0378878  
H971     H      0.906660000000     0.448110000000     0.100490000000     0.0380409  
H972     H      0.876060000000     0.447730000000     0.069130000000     0.0451549  
H973     H      0.851360000000     0.472880000000     0.044440000000     0.0451993  
H974     H      0.820010000000     0.472510000000     0.013850000000     0.0379123  
H975     H      0.768970000000     0.947270000000     0.066630000000     0.0378423  
H976     H      0.800350000000     0.946860000000     0.096850000000     0.0459077  
H977     H      0.444870000000     0.596690000000     0.300930000000     0.0447792  
H978     H      0.444660000000     0.566410000000     0.269560000000     0.0342125  
H979     H      0.972260000000     0.514050000000     0.319810000000     0.0375786  
H980     H      0.973260000000     0.544670000000     0.351080000000     0.0454859  
H981     H      0.948850000000     0.568960000000     0.376620000000     0.0453754  
H982     H      0.949860000000     0.600250000000     0.407210000000     0.0368914  
H983     H      0.472220000000     0.651800000000     0.353630000000     0.0331112  
H984     H      0.472020000000     0.620440000000     0.323330000000     0.0451519  
H985     H      0.447950000000     0.876410000000     0.351380000000     0.0454618  
H986     H      0.449110000000     0.906990000000     0.320090000000     0.0376307  
H987     H      0.974420000000     0.853960000000     0.269340000000     0.034567   
H988     H      0.974000000000     0.823680000000     0.300710000000     0.0454014  
H989     H      0.946390000000     0.800750000000     0.323660000000     0.0453756  
H990     H      0.945950000000     0.769380000000     0.353940000000     0.0344977  
H991     H      0.471310000000     0.820130000000     0.406950000000     0.0375628  
H992     H      0.472480000000     0.851420000000     0.376360000000     0.045457   
H993     H      0.475370000000     0.800960000000     0.096660000000     0.0447609  
H994     H      0.475610000000     0.769600000000     0.066370000000     0.0342743  
H995     H      0.948000000000     0.819850000000     0.014030000000     0.0373169  
H996     H      0.946980000000     0.851120000000     0.044650000000     0.0452709  
H997     H      0.971370000000     0.876660000000     0.068940000000     0.045436   
H998     H      0.970370000000     0.907240000000     0.100240000000     0.0370277  
H999     H      0.448000000000     0.853650000000     0.151770000000     0.0331109  
H1000    H      0.448200000000     0.823350000000     0.120410000000     0.0450452  
H1001    H      0.948120000000     0.544360000000     0.069210000000     0.0452043  
H1002    H      0.949020000000     0.513750000000     0.100480000000     0.0366608  
H1003    H      0.473700000000     0.566740000000     0.151550000000     0.0328338  
H1004    H      0.473670000000     0.597050000000     0.120200000000     0.0445642  
H1005    H      0.446880000000     0.620240000000     0.097020000000     0.0445885  
H1006    H      0.446820000000     0.651580000000     0.066720000000     0.0328267  
H1007    H      0.971450000000     0.600500000000     0.013720000000     0.0365562  
H1008    H      0.972370000000     0.569230000000     0.044330000000     0.0451786  
H1009    H      0.496930000000     0.497380000000     0.744500000000     0.210041   
H1010    H      0.497570000000     0.923030000000     0.674490000000     0.203649   
H1011    H      0.923480000000     0.923350000000     0.744510000000     0.209898   
H1012    H      0.922840000000     0.497700000000     0.674480000000     0.20376    
H1013    H      0.538290000000     0.917350000000     0.706930000000     0.125285   
H1014    H      0.504680000000     0.878700000000     0.707340000000     0.185954   
H1015    H      0.918240000000     0.886110000000     0.696780000000     0.147972   
H1016    H      0.877650000000     0.920730000000     0.725360000000     0.199517   
H1017    H      0.882140000000     0.503400000000     0.707010000000     0.125374   
H1018    H      0.915740000000     0.542030000000     0.707230000000     0.185883   
H1019    H      0.502190000000     0.534630000000     0.696860000000     0.147871   
H1020    H      0.542720000000     0.500060000000     0.725290000000     0.199531   
H1021    H      0.880330000000     0.918630000000     0.695520000000     0.20372    
H1022    H      0.939310000000     0.560340000000     0.710870000000     0.203192   
H1023    H      0.540090000000     0.502070000000     0.695430000000     0.20339    
H1024    H      0.481100000000     0.860390000000     0.710900000000     0.20326    
H1025    H      0.923420000000     0.744570000000     0.497340000000     0.209685   
H1026    H      0.922720000000     0.674500000000     0.923070000000     0.203654   
H1027    H      0.496870000000     0.744570000000     0.923330000000     0.209986   
H1028    H      0.497570000000     0.674490000000     0.497600000000     0.203465   
H1029    H      0.882070000000     0.707010000000     0.917340000000     0.125296   
H1030    H      0.915620000000     0.707410000000     0.878710000000     0.18592    
H1031    H      0.502040000000     0.696760000000     0.886050000000     0.147928   
H1032    H      0.542770000000     0.725750000000     0.920860000000     0.199281   
H1033    H      0.538190000000     0.707100000000     0.503350000000     0.125303   
H1034    H      0.504660000000     0.707320000000     0.541960000000     0.185679   
H1035    H      0.918230000000     0.696830000000     0.534630000000     0.147778   
H1036    H      0.877560000000     0.725670000000     0.499870000000     0.199152   
H1037    H      0.539920000000     0.695950000000     0.918370000000     0.203396   
H1038    H      0.481090000000     0.710930000000     0.560280000000     0.203145   
H1039    H      0.880360000000     0.695860000000     0.502270000000     0.203217   
H1040    H      0.939200000000     0.710950000000     0.860390000000     0.203498   
H1041    H      0.675950000000     0.497360000000     0.496980000000     0.209699   
H1042    H      0.746030000000     0.922960000000     0.497620000000     0.203368   
H1043    H      0.675960000000     0.923290000000     0.923590000000     0.209904   
H1044    H      0.746020000000     0.497690000000     0.922950000000     0.203405   
H1045    H      0.713440000000     0.917300000000     0.538340000000     0.125511   
H1046    H      0.713590000000     0.878680000000     0.504740000000     0.185741   
H1047    H      0.723190000000     0.886080000000     0.918170000000     0.148005   
H1048    H      0.695240000000     0.920570000000     0.877840000000     0.199436   
H1049    H      0.713520000000     0.503330000000     0.882200000000     0.125584   
H1050    H      0.713520000000     0.541970000000     0.915820000000     0.185906   
H1051    H      0.723250000000     0.534570000000     0.502380000000     0.147965   
H1052    H      0.695160000000     0.500030000000     0.542760000000     0.199455   
H1053    H      0.725120000000     0.918670000000     0.880360000000     0.203243   
H1054    H      0.709770000000     0.560290000000     0.939370000000     0.203487   
H1055    H      0.725030000000     0.502010000000     0.540200000000     0.203383   
H1056    H      0.709780000000     0.860360000000     0.481200000000     0.203568   
H1057    H      0.851320000000     0.876110000000     0.971210000000     0.0452946  
H1058    H      0.820040000000     0.906740000000     0.971030000000     0.0366617  
H1059    H      0.768900000000     0.854280000000     0.445390000000     0.0331336  
H1060    H      0.800250000000     0.823980000000     0.444680000000     0.0457884  
H1061    H      0.823270000000     0.800340000000     0.471110000000     0.0452436  
H1062    H      0.853530000000     0.768980000000     0.471150000000     0.0334105  
H1063    H      0.906860000000     0.820220000000     0.947570000000     0.038227   
H1064    H      0.876250000000     0.851560000000     0.946650000000     0.0455541  
H1065    H      0.875960000000     0.569460000000     0.474890000000     0.0452527  
H1066    H      0.906550000000     0.600800000000     0.473890000000     0.0381364  
H1067    H      0.853750000000     0.651350000000     0.947740000000     0.0376101  
H1068    H      0.823520000000     0.619970000000     0.947920000000     0.045144   
H1069    H      0.800030000000     0.596990000000     0.974700000000     0.045306   
H1070    H      0.768690000000     0.566670000000     0.974130000000     0.0331963  
H1071    H      0.820260000000     0.513700000000     0.450430000000     0.0367786  
H1072    H      0.851540000000     0.544330000000     0.450170000000     0.0453184  
H1073    H      0.619540000000     0.824380000000     0.977770000000     0.0459925  
H1074    H      0.650920000000     0.854650000000     0.977230000000     0.0345913  
H1075    H      0.600620000000     0.906430000000     0.448680000000     0.0374329  
H1076    H      0.569320000000     0.875800000000     0.448410000000     0.0453934  
H1077    H      0.543730000000     0.851830000000     0.473100000000     0.0456681  
H1078    H      0.513160000000     0.820460000000     0.472080000000     0.0383637  
H1079    H      0.567050000000     0.768790000000     0.950790000000     0.0340655  
H1080    H      0.597300000000     0.800160000000     0.950990000000     0.0457888  
H1081    H      0.543980000000     0.569160000000     0.446630000000     0.0453517  
H1082    H      0.513420000000     0.600520000000     0.447760000000     0.0382003  
H1083    H      0.566870000000     0.651560000000     0.971600000000     0.0379734  
H1084    H      0.597090000000     0.620170000000     0.971220000000     0.0457174  
H1085    H      0.619770000000     0.596620000000     0.944040000000     0.0455069  
H1086    H      0.651140000000     0.566340000000     0.944390000000     0.0345489  
H1087    H      0.600380000000     0.513980000000     0.471060000000     0.0374428  
H1088    H      0.569090000000     0.544600000000     0.471470000000     0.045256   
H1089    H      0.823350000000     0.448730000000     0.800070000000     0.0459556  
H1090    H      0.853600000000     0.449290000000     0.768720000000     0.0338204  
H1091    H      0.906960000000     0.971790000000     0.820430000000     0.0383055  
H1092    H      0.876350000000     0.972070000000     0.851780000000     0.0456496  
H1093    H      0.851130000000     0.947050000000     0.875850000000     0.0453505  
H1094    H      0.819770000000     0.947290000000     0.906460000000     0.0381761  
H1095    H      0.769190000000     0.474560000000     0.854270000000     0.0377329  
H1096    H      0.800580000000     0.475150000000     0.824060000000     0.0463203  
H1097    H      0.544310000000     0.947860000000     0.851560000000     0.0455375  
H1098    H      0.513700000000     0.948050000000     0.820210000000     0.0381741  
H1099    H      0.566510000000     0.472600000000     0.768920000000     0.0334686  
H1100    H      0.596760000000     0.473320000000     0.800270000000     0.0464411  
H1101    H      0.620230000000     0.447240000000     0.823750000000     0.0464284  
H1102    H      0.651580000000     0.447970000000     0.854000000000     0.0334563  
H1103    H      0.600260000000     0.972560000000     0.906780000000     0.0382269  
H1104    H      0.568920000000     0.972730000000     0.876160000000     0.0456361  
H1105    H      0.596460000000     0.445690000000     0.619910000000     0.0463742  
H1106    H      0.566260000000     0.446270000000     0.651300000000     0.0377607  
H1107    H      0.514020000000     0.973480000000     0.600730000000     0.0380881  
H1108    H      0.544620000000     0.973730000000     0.569380000000     0.0453521  
H1109    H      0.568700000000     0.948720000000     0.544160000000     0.0456448  
H1110    H      0.600040000000     0.948980000000     0.513550000000     0.0383068  
H1111    H      0.651770000000     0.471540000000     0.566860000000     0.0337768  
H1112    H      0.620430000000     0.472110000000     0.597120000000     0.0459496  
H1113    H      0.823610000000     0.973680000000     0.620140000000     0.0458954  
H1114    H      0.853830000000     0.973290000000     0.651520000000     0.0378928  
H1115    H      0.906660000000     0.448110000000     0.600490000000     0.0380606  
H1116    H      0.876060000000     0.447730000000     0.569130000000     0.0452071  
H1117    H      0.851360000000     0.472880000000     0.544440000000     0.0452745  
H1118    H      0.820010000000     0.472510000000     0.513850000000     0.0380529  
H1119    H      0.768970000000     0.947270000000     0.566630000000     0.0378451  
H1120    H      0.800350000000     0.946860000000     0.596850000000     0.0459269  
H1121    H      0.444870000000     0.596690000000     0.800930000000     0.0447597  
H1122    H      0.444660000000     0.566410000000     0.769560000000     0.0342337  
H1123    H      0.972260000000     0.514050000000     0.819810000000     0.0375856  
H1124    H      0.973260000000     0.544670000000     0.851080000000     0.0454849  
H1125    H      0.948850000000     0.568960000000     0.876620000000     0.045384   
H1126    H      0.949860000000     0.600250000000     0.907210000000     0.0369024  
H1127    H      0.472220000000     0.651800000000     0.853630000000     0.0331061  
H1128    H      0.472020000000     0.620440000000     0.823330000000     0.0451489  
H1129    H      0.447950000000     0.876410000000     0.851380000000     0.0454609  
H1130    H      0.449110000000     0.906990000000     0.820090000000     0.0376339  
H1131    H      0.974420000000     0.853960000000     0.769340000000     0.0345684  
H1132    H      0.974000000000     0.823680000000     0.800710000000     0.0453878  
H1133    H      0.946390000000     0.800750000000     0.823660000000     0.0453719  
H1134    H      0.945950000000     0.769380000000     0.853940000000     0.0344908  
H1135    H      0.471310000000     0.820130000000     0.906950000000     0.0375744  
H1136    H      0.472480000000     0.851420000000     0.876360000000     0.0454662  
H1137    H      0.475370000000     0.800960000000     0.596660000000     0.0447874  
H1138    H      0.475610000000     0.769600000000     0.566370000000     0.0342532  
H1139    H      0.948000000000     0.819850000000     0.514030000000     0.0374537  
H1140    H      0.946980000000     0.851120000000     0.544650000000     0.0453546  
H1141    H      0.971370000000     0.876660000000     0.568940000000     0.0454882  
H1142    H      0.970370000000     0.907240000000     0.600240000000     0.0370403  
H1143    H      0.448000000000     0.853650000000     0.651770000000     0.0331044  
H1144    H      0.448200000000     0.823350000000     0.620410000000     0.0450569  
H1145    H      0.948120000000     0.544360000000     0.569210000000     0.0452534  
H1146    H      0.949020000000     0.513750000000     0.600480000000     0.0366823  
H1147    H      0.473700000000     0.566740000000     0.651550000000     0.0328363  
H1148    H      0.473670000000     0.597050000000     0.620200000000     0.044573   
H1149    H      0.446880000000     0.620240000000     0.597020000000     0.0446092  
H1150    H      0.446820000000     0.651580000000     0.566720000000     0.0328194  
H1151    H      0.971450000000     0.600500000000     0.513720000000     0.0366974  
H1152    H      0.972370000000     0.569230000000     0.544330000000     0.0452586  
O1       O      0.960620000000     0.027260000000     0.169860000000    -0.355482   
O2       O      0.460640000000     0.997170000000     0.141700000000    -0.343415   
O3       O      0.027110000000     0.959280000000     0.250780000000    -0.349418   
O4       O      0.997020000000     0.460330000000     0.278930000000    -0.342217   
O5       O      0.027150000000     0.959450000000     0.169850000000    -0.352804   
O6       O      0.997060000000     0.461140000000     0.141730000000    -0.342271   
O7       O      0.957690000000     0.027240000000     0.250820000000    -0.344912   
O8       O      0.460350000000     0.997190000000     0.278890000000    -0.342249   
O9       O      0.993330000000     0.037380000000     0.212030000000    -0.339955   
O10      O      0.432820000000     0.044320000000     0.209290000000    -0.51326    
O11      O      0.036220000000     0.994090000000     0.210350000000    -0.512079   
O12      O      0.044900000000     0.433550000000     0.210140000000    -0.325995   
O13      O      0.987230000000     0.987580000000     0.186270000000    -0.467888   
O14      O      0.987130000000     0.987480000000     0.234160000000    -0.609593   
O15      O      0.393310000000     0.461540000000     0.250770000000    -0.349532   
O16      O      0.423390000000     0.960400000000     0.278920000000    -0.342479   
O17      O      0.459870000000     0.393460000000     0.169860000000    -0.355699   
O18      O      0.959760000000     0.423550000000     0.141710000000    -0.344036   
O19      O      0.462620000000     0.393490000000     0.250830000000    -0.345118   
O20      O      0.960050000000     0.423540000000     0.278900000000    -0.342712   
O21      O      0.393260000000     0.461190000000     0.169850000000    -0.352822   
O22      O      0.423350000000     0.959590000000     0.141730000000    -0.34291    
O23      O      0.384180000000     0.426650000000     0.210410000000    -0.513636   
O24      O      0.375520000000     0.987190000000     0.210100000000    -0.325773   
O25      O      0.427070000000     0.383360000000     0.211970000000    -0.340445   
O26      O      0.987600000000     0.376410000000     0.209350000000    -0.51281    
O27      O      0.433280000000     0.433250000000     0.234170000000    -0.610206   
O28      O      0.433170000000     0.433140000000     0.186270000000    -0.468473   
O29      O      0.432450000000     0.987910000000     0.236100000000    -0.473528   
O30      O      0.987760000000     0.432930000000     0.184830000000    -0.622902   
O31      O      0.432640000000     0.987800000000     0.184820000000    -0.623042   
O32      O      0.987970000000     0.432820000000     0.236100000000    -0.473651   
O33      O      0.459810000000     0.169880000000     0.027220000000    -0.35564    
O34      O      0.959830000000     0.141720000000     0.997130000000    -0.343512   
O35      O      0.393220000000     0.250800000000     0.958890000000    -0.349558   
O36      O      0.423300000000     0.278960000000     0.460060000000    -0.342471   
O37      O      0.393180000000     0.169900000000     0.959820000000    -0.352728   
O38      O      0.423270000000     0.141780000000     0.461380000000    -0.342892   
O39      O      0.462660000000     0.250860000000     0.027200000000    -0.344717   
O40      O      0.959910000000     0.278940000000     0.997160000000    -0.342372   
O41      O      0.427060000000     0.212020000000     0.037350000000    -0.340653   
O42      O      0.987580000000     0.209350000000     0.044260000000    -0.512674   
O43      O      0.384150000000     0.210690000000     0.994090000000    -0.512892   
O44      O      0.375440000000     0.209970000000     0.433570000000    -0.326503   
O45      O      0.433130000000     0.186310000000     0.987560000000    -0.468316   
O46      O      0.433230000000     0.234220000000     0.987460000000    -0.609486   
O47      O      0.027050000000     0.250800000000     0.461870000000    -0.349431   
O48      O      0.996980000000     0.278960000000     0.960610000000    -0.341902   
O49      O      0.960400000000     0.169890000000     0.393450000000    -0.355713   
O50      O      0.460470000000     0.141730000000     0.423530000000    -0.344076   
O51      O      0.957720000000     0.250870000000     0.393470000000    -0.34496    
O52      O      0.460380000000     0.278950000000     0.423510000000    -0.342894   
O53      O      0.027090000000     0.169890000000     0.460760000000    -0.352595   
O54      O      0.997000000000     0.141770000000     0.959280000000    -0.342256   
O55      O      0.036150000000     0.210760000000     0.426590000000    -0.51338    
O56      O      0.044840000000     0.209920000000     0.987100000000    -0.326013   
O57      O      0.993230000000     0.211970000000     0.383320000000    -0.339828   
O58      O      0.432700000000     0.209400000000     0.376400000000    -0.513782   
O59      O      0.987060000000     0.234220000000     0.433210000000    -0.609645   
O60      O      0.987150000000     0.186310000000     0.433100000000    -0.46814    
O61      O      0.987900000000     0.236130000000     0.987850000000    -0.473379   
O62      O      0.432550000000     0.184850000000     0.432930000000    -0.623158   
O63      O      0.987730000000     0.184840000000     0.987740000000    -0.62257    
O64      O      0.432380000000     0.236140000000     0.432810000000    -0.47392    
O65      O      0.250630000000     0.027190000000     0.961020000000    -0.355292   
O66      O      0.278800000000     0.997110000000     0.460990000000    -0.343333   
O67      O      0.169710000000     0.959190000000     0.027170000000    -0.349398   
O68      O      0.141560000000     0.460400000000     0.997100000000    -0.342155   
O69      O      0.250640000000     0.959460000000     0.027220000000    -0.352746   
O70      O      0.278760000000     0.461010000000     0.997140000000    -0.342467   
O71      O      0.169650000000     0.027170000000     0.957460000000    -0.344937   
O72      O      0.141570000000     0.997140000000     0.460170000000    -0.342356   
O73      O      0.208200000000     0.037390000000     0.993350000000    -0.340153   
O74      O      0.211380000000     0.044270000000     0.432890000000    -0.513309   
O75      O      0.210110000000     0.994050000000     0.036290000000    -0.512227   
O76      O      0.210360000000     0.433510000000     0.044960000000    -0.3263     
O77      O      0.234210000000     0.987550000000     0.987310000000    -0.467756   
O78      O      0.186310000000     0.987450000000     0.987200000000    -0.609393   
O79      O      0.169710000000     0.461380000000     0.393380000000    -0.349292   
O80      O      0.141560000000     0.960260000000     0.423470000000    -0.342656   
O81      O      0.250640000000     0.393470000000     0.459490000000    -0.355452   
O82      O      0.278800000000     0.423560000000     0.959600000000    -0.343996   
O83      O      0.169650000000     0.393490000000     0.463180000000    -0.344767   
O84      O      0.141570000000     0.423520000000     0.960390000000    -0.342738   
O85      O      0.250640000000     0.461280000000     0.393340000000    -0.352713   
O86      O      0.278760000000     0.959650000000     0.423430000000    -0.342733   
O87      O      0.210180000000     0.426600000000     0.384290000000    -0.513177   
O88      O      0.210320000000     0.987140000000     0.375600000000    -0.325485   
O89      O      0.208150000000     0.383270000000     0.427220000000    -0.340514   
O90      O      0.211410000000     0.376380000000     0.987680000000    -0.512841   
O91      O      0.186310000000     0.433200000000     0.433360000000    -0.610089   
O92      O      0.234210000000     0.433110000000     0.433260000000    -0.46839    
O93      O      0.184390000000     0.987860000000     0.432520000000    -0.473541   
O94      O      0.235680000000     0.432880000000     0.987840000000    -0.622798   
O95      O      0.235670000000     0.987770000000     0.432730000000    -0.622555   
O96      O      0.184390000000     0.432800000000     0.988040000000    -0.473538   
O97      O      0.960620000000     0.027260000000     0.669850000000    -0.35558    
O98      O      0.460640000000     0.997170000000     0.641700000000    -0.343481   
O99      O      0.027110000000     0.959280000000     0.750780000000    -0.349407   
O100     O      0.997020000000     0.460330000000     0.778930000000    -0.342216   
O101     O      0.027150000000     0.959450000000     0.669850000000    -0.35282    
O102     O      0.997060000000     0.461140000000     0.641730000000    -0.342266   
O103     O      0.957690000000     0.027240000000     0.750820000000    -0.344906   
O104     O      0.460350000000     0.997190000000     0.778890000000    -0.342245   
O105     O      0.993330000000     0.037380000000     0.712030000000    -0.339958   
O106     O      0.432820000000     0.044320000000     0.709290000000    -0.513263   
O107     O      0.036220000000     0.994090000000     0.710350000000    -0.512082   
O108     O      0.044900000000     0.433550000000     0.710150000000    -0.325921   
O109     O      0.987230000000     0.987580000000     0.686270000000    -0.46789    
O110     O      0.987130000000     0.987480000000     0.734160000000    -0.609588   
O111     O      0.393310000000     0.461540000000     0.750770000000    -0.349533   
O112     O      0.423390000000     0.960400000000     0.778920000000    -0.342464   
O113     O      0.459870000000     0.393460000000     0.669860000000    -0.355548   
O114     O      0.959760000000     0.423550000000     0.641710000000    -0.344023   
O115     O      0.462620000000     0.393490000000     0.750830000000    -0.345121   
O116     O      0.960050000000     0.423540000000     0.778900000000    -0.342713   
O117     O      0.393260000000     0.461190000000     0.669850000000    -0.352821   
O118     O      0.423350000000     0.959590000000     0.641730000000    -0.342902   
O119     O      0.384180000000     0.426650000000     0.710410000000    -0.513638   
O120     O      0.375520000000     0.987190000000     0.710100000000    -0.325776   
O121     O      0.427070000000     0.383360000000     0.711960000000    -0.340635   
O122     O      0.987600000000     0.376410000000     0.709350000000    -0.512812   
O123     O      0.433280000000     0.433250000000     0.734170000000    -0.610207   
O124     O      0.433170000000     0.433140000000     0.686270000000    -0.468472   
O125     O      0.432450000000     0.987910000000     0.736100000000    -0.473524   
O126     O      0.987760000000     0.432930000000     0.684830000000    -0.622903   
O127     O      0.432640000000     0.987800000000     0.684820000000    -0.623042   
O128     O      0.987970000000     0.432820000000     0.736100000000    -0.473646   
O129     O      0.459810000000     0.169880000000     0.527220000000    -0.355726   
O130     O      0.959830000000     0.141720000000     0.497130000000    -0.344015   
O131     O      0.393220000000     0.250800000000     0.458890000000    -0.349562   
O132     O      0.423300000000     0.278960000000     0.960050000000    -0.342441   
O133     O      0.393180000000     0.169900000000     0.459820000000    -0.352777   
O134     O      0.423270000000     0.141780000000     0.961380000000    -0.342863   
O135     O      0.462660000000     0.250860000000     0.527190000000    -0.344894   
O136     O      0.959910000000     0.278940000000     0.497160000000    -0.342877   
O137     O      0.427060000000     0.212020000000     0.537350000000    -0.340619   
O138     O      0.987580000000     0.209350000000     0.544260000000    -0.512719   
O139     O      0.384150000000     0.210690000000     0.494090000000    -0.513433   
O140     O      0.375440000000     0.209970000000     0.933570000000    -0.326489   
O141     O      0.433130000000     0.186310000000     0.487560000000    -0.468594   
O142     O      0.433230000000     0.234220000000     0.487460000000    -0.609659   
O143     O      0.027050000000     0.250800000000     0.961870000000    -0.349411   
O144     O      0.996980000000     0.278960000000     0.460610000000    -0.341927   
O145     O      0.960400000000     0.169890000000     0.893450000000    -0.355717   
O146     O      0.460470000000     0.141730000000     0.923530000000    -0.344076   
O147     O      0.957720000000     0.250870000000     0.893470000000    -0.34496    
O148     O      0.460380000000     0.278950000000     0.923510000000    -0.342883   
O149     O      0.027090000000     0.169890000000     0.960760000000    -0.35258    
O150     O      0.997000000000     0.141770000000     0.459280000000    -0.342281   
O151     O      0.036150000000     0.210760000000     0.926590000000    -0.513391   
O152     O      0.044840000000     0.209920000000     0.487100000000    -0.326467   
O153     O      0.993230000000     0.211970000000     0.883320000000    -0.339834   
O154     O      0.432700000000     0.209400000000     0.876400000000    -0.513782   
O155     O      0.987060000000     0.234220000000     0.933210000000    -0.609651   
O156     O      0.987150000000     0.186310000000     0.933100000000    -0.46815    
O157     O      0.987900000000     0.236130000000     0.487850000000    -0.473642   
O158     O      0.432550000000     0.184850000000     0.932930000000    -0.623162   
O159     O      0.987730000000     0.184840000000     0.487740000000    -0.622768   
O160     O      0.432380000000     0.236140000000     0.932810000000    -0.473917   
O161     O      0.250630000000     0.027190000000     0.461020000000    -0.355333   
O162     O      0.278800000000     0.997110000000     0.960990000000    -0.343298   
O163     O      0.169710000000     0.959190000000     0.527170000000    -0.349462   
O164     O      0.141560000000     0.460400000000     0.497100000000    -0.342655   
O165     O      0.250640000000     0.959460000000     0.527220000000    -0.352823   
O166     O      0.278760000000     0.461010000000     0.497140000000    -0.342823   
O167     O      0.169650000000     0.027170000000     0.457460000000    -0.344943   
O168     O      0.141570000000     0.997140000000     0.960170000000    -0.342337   
O169     O      0.208200000000     0.037390000000     0.493350000000    -0.340648   
O170     O      0.211380000000     0.044270000000     0.932890000000    -0.513316   
O171     O      0.210110000000     0.994040000000     0.536290000000    -0.511868   
O172     O      0.210360000000     0.433510000000     0.544960000000    -0.326327   
O173     O      0.234210000000     0.987550000000     0.487310000000    -0.468038   
O174     O      0.186310000000     0.987450000000     0.487200000000    -0.609581   
O175     O      0.169710000000     0.461380000000     0.893380000000    -0.349292   
O176     O      0.141560000000     0.960260000000     0.923470000000    -0.342654   
O177     O      0.250640000000     0.393470000000     0.959490000000    -0.355434   
O178     O      0.278800000000     0.423560000000     0.459600000000    -0.344015   
O179     O      0.169650000000     0.393490000000     0.963180000000    -0.344746   
O180     O      0.141570000000     0.423520000000     0.460390000000    -0.342769   
O181     O      0.250640000000     0.461280000000     0.893340000000    -0.352718   
O182     O      0.278760000000     0.959650000000     0.923430000000    -0.342732   
O183     O      0.210180000000     0.426600000000     0.884290000000    -0.513175   
O184     O      0.210320000000     0.987140000000     0.875600000000    -0.325491   
O185     O      0.208150000000     0.383270000000     0.927220000000    -0.340519   
O186     O      0.211410000000     0.376380000000     0.487680000000    -0.513371   
O187     O      0.186310000000     0.433200000000     0.933360000000    -0.610092   
O188     O      0.234210000000     0.433110000000     0.933260000000    -0.468398   
O189     O      0.184390000000     0.987860000000     0.932520000000    -0.473547   
O190     O      0.235680000000     0.432880000000     0.487840000000    -0.622985   
O191     O      0.235670000000     0.987770000000     0.932730000000    -0.62256    
O192     O      0.184390000000     0.432800000000     0.488040000000    -0.473809   
O193     O      0.960620000000     0.527260000000     0.169850000000    -0.35559    
O194     O      0.460640000000     0.497160000000     0.141700000000    -0.343951   
O195     O      0.027110000000     0.459280000000     0.250780000000    -0.349454   
O196     O      0.997020000000     0.960330000000     0.278930000000    -0.342181   
O197     O      0.027150000000     0.459450000000     0.169850000000    -0.352788   
O198     O      0.997070000000     0.961140000000     0.141730000000    -0.342348   
O199     O      0.957690000000     0.527240000000     0.250820000000    -0.345018   
O200     O      0.460350000000     0.497190000000     0.278890000000    -0.342903   
O201     O      0.993330000000     0.537380000000     0.212030000000    -0.339925   
O202     O      0.432820000000     0.544320000000     0.209290000000    -0.513315   
O203     O      0.036220000000     0.494090000000     0.210350000000    -0.513307   
O204     O      0.044900000000     0.933550000000     0.210140000000    -0.325976   
O205     O      0.987230000000     0.487590000000     0.186270000000    -0.468121   
O206     O      0.987130000000     0.487480000000     0.234160000000    -0.609851   
O207     O      0.393310000000     0.961540000000     0.250770000000    -0.349522   
O208     O      0.423390000000     0.460400000000     0.278920000000    -0.342636   
O209     O      0.459870000000     0.893470000000     0.169860000000    -0.355722   
O210     O      0.959760000000     0.923560000000     0.141710000000    -0.343955   
O211     O      0.462620000000     0.893490000000     0.250830000000    -0.345148   
O212     O      0.960050000000     0.923540000000     0.278900000000    -0.342787   
O213     O      0.393260000000     0.961200000000     0.169850000000    -0.352814   
O214     O      0.423350000000     0.459590000000     0.141730000000    -0.34294    
O215     O      0.384190000000     0.926650000000     0.210410000000    -0.513502   
O216     O      0.375520000000     0.487190000000     0.210100000000    -0.326286   
O217     O      0.427070000000     0.883350000000     0.211970000000    -0.340348   
O218     O      0.987600000000     0.876410000000     0.209350000000    -0.512931   
O219     O      0.433280000000     0.933260000000     0.234170000000    -0.610167   
O220     O      0.433170000000     0.933140000000     0.186270000000    -0.468476   
O221     O      0.432450000000     0.487910000000     0.236100000000    -0.473893   
O222     O      0.987760000000     0.932930000000     0.184830000000    -0.622874   
O223     O      0.432640000000     0.487800000000     0.184820000000    -0.623248   
O224     O      0.987970000000     0.932820000000     0.236100000000    -0.47371    
O225     O      0.459810000000     0.669880000000     0.027220000000    -0.355502   
O226     O      0.959830000000     0.641720000000     0.997130000000    -0.343503   
O227     O      0.393220000000     0.750800000000     0.958890000000    -0.349568   
O228     O      0.423300000000     0.778960000000     0.460060000000    -0.342483   
O229     O      0.393180000000     0.669900000000     0.959820000000    -0.352733   
O230     O      0.423270000000     0.641780000000     0.461380000000    -0.342886   
O231     O      0.462660000000     0.750860000000     0.027200000000    -0.344725   
O232     O      0.959910000000     0.778940000000     0.997160000000    -0.342385   
O233     O      0.427060000000     0.712020000000     0.037350000000    -0.340649   
O234     O      0.987580000000     0.709350000000     0.044260000000    -0.512684   
O235     O      0.384150000000     0.710690000000     0.994090000000    -0.512888   
O236     O      0.375440000000     0.709970000000     0.433570000000    -0.326511   
O237     O      0.433130000000     0.686310000000     0.987560000000    -0.468299   
O238     O      0.433230000000     0.734210000000     0.987460000000    -0.609365   
O239     O      0.027050000000     0.750810000000     0.461870000000    -0.349524   
O240     O      0.996980000000     0.778960000000     0.960610000000    -0.341965   
O241     O      0.960400000000     0.669890000000     0.393450000000    -0.355706   
O242     O      0.460470000000     0.641730000000     0.423530000000    -0.344073   
O243     O      0.957720000000     0.750870000000     0.393470000000    -0.344992   
O244     O      0.460380000000     0.778940000000     0.423510000000    -0.342999   
O245     O      0.027090000000     0.669890000000     0.460760000000    -0.352592   
O246     O      0.997000000000     0.641770000000     0.959280000000    -0.34225    
O247     O      0.036150000000     0.710760000000     0.426590000000    -0.513383   
O248     O      0.044840000000     0.709920000000     0.987100000000    -0.32602    
O249     O      0.993230000000     0.711960000000     0.383320000000    -0.340017   
O250     O      0.432700000000     0.709400000000     0.376400000000    -0.51375    
O251     O      0.987060000000     0.734220000000     0.433210000000    -0.609635   
O252     O      0.987150000000     0.686310000000     0.433100000000    -0.468139   
O253     O      0.987900000000     0.736130000000     0.987850000000    -0.473387   
O254     O      0.432550000000     0.684850000000     0.432930000000    -0.623167   
O255     O      0.987730000000     0.684840000000     0.987740000000    -0.622568   
O256     O      0.432380000000     0.736140000000     0.432810000000    -0.47392    
O257     O      0.250630000000     0.527190000000     0.961020000000    -0.355383   
O258     O      0.278800000000     0.497110000000     0.460990000000    -0.343912   
O259     O      0.169710000000     0.459200000000     0.027170000000    -0.349462   
O260     O      0.141560000000     0.960400000000     0.997100000000    -0.342119   
O261     O      0.250640000000     0.459460000000     0.027220000000    -0.3528     
O262     O      0.278760000000     0.961010000000     0.997140000000    -0.342428   
O263     O      0.169650000000     0.527170000000     0.957450000000    -0.345009   
O264     O      0.141570000000     0.497140000000     0.460170000000    -0.342928   
O265     O      0.208200000000     0.537390000000     0.993350000000    -0.340142   
O266     O      0.211380000000     0.544270000000     0.432890000000    -0.513359   
O267     O      0.210110000000     0.494050000000     0.036290000000    -0.513459   
O268     O      0.210360000000     0.933510000000     0.044960000000    -0.326269   
O269     O      0.234210000000     0.487550000000     0.987310000000    -0.468071   
O270     O      0.186310000000     0.487450000000     0.987200000000    -0.609591   
O271     O      0.169710000000     0.961380000000     0.393380000000    -0.349262   
O272     O      0.141560000000     0.460260000000     0.423470000000    -0.342685   
O273     O      0.250640000000     0.893470000000     0.459490000000    -0.355433   
O274     O      0.278800000000     0.923560000000     0.959600000000    -0.343981   
O275     O      0.169650000000     0.893490000000     0.463180000000    -0.344768   
O276     O      0.141570000000     0.923520000000     0.960390000000    -0.34274    
O277     O      0.250640000000     0.961280000000     0.393340000000    -0.35269    
O278     O      0.278760000000     0.459650000000     0.423430000000    -0.342765   
O279     O      0.210180000000     0.926600000000     0.384290000000    -0.513196   
O280     O      0.210320000000     0.487140000000     0.375600000000    -0.326004   
O281     O      0.208150000000     0.883270000000     0.427220000000    -0.34053    
O282     O      0.211410000000     0.876380000000     0.987680000000    -0.512835   
O283     O      0.186310000000     0.933210000000     0.433360000000    -0.609988   
O284     O      0.234210000000     0.933110000000     0.433260000000    -0.468401   
O285     O      0.184390000000     0.487860000000     0.432520000000    -0.473856   
O286     O      0.235680000000     0.932880000000     0.987840000000    -0.622791   
O287     O      0.235670000000     0.487770000000     0.432730000000    -0.622772   
O288     O      0.184390000000     0.932800000000     0.988040000000    -0.473533   
O289     O      0.960620000000     0.527260000000     0.669850000000    -0.35559    
O290     O      0.460640000000     0.497160000000     0.641700000000    -0.343946   
O291     O      0.027110000000     0.459280000000     0.750780000000    -0.349442   
O292     O      0.997020000000     0.960330000000     0.778930000000    -0.342182   
O293     O      0.027150000000     0.459450000000     0.669850000000    -0.352805   
O294     O      0.997070000000     0.961140000000     0.641730000000    -0.342342   
O295     O      0.957690000000     0.527240000000     0.750820000000    -0.345015   
O296     O      0.460350000000     0.497190000000     0.778890000000    -0.3429     
O297     O      0.993330000000     0.537380000000     0.712030000000    -0.339927   
O298     O      0.432820000000     0.544320000000     0.709290000000    -0.513315   
O299     O      0.036220000000     0.494090000000     0.710350000000    -0.513309   
O300     O      0.044900000000     0.933550000000     0.710150000000    -0.325902   
O301     O      0.987230000000     0.487590000000     0.686270000000    -0.468122   
O302     O      0.987130000000     0.487480000000     0.734160000000    -0.60985    
O303     O      0.393310000000     0.961540000000     0.750770000000    -0.349512   
O304     O      0.423390000000     0.460400000000     0.778920000000    -0.342636   
O305     O      0.459870000000     0.893470000000     0.669860000000    -0.355572   
O306     O      0.959760000000     0.923560000000     0.641710000000    -0.343942   
O307     O      0.462620000000     0.893490000000     0.750830000000    -0.345152   
O308     O      0.960050000000     0.923540000000     0.778900000000    -0.342797   
O309     O      0.393260000000     0.961200000000     0.669850000000    -0.352812   
O310     O      0.423350000000     0.459590000000     0.641730000000    -0.342933   
O311     O      0.384190000000     0.926650000000     0.710410000000    -0.513504   
O312     O      0.375520000000     0.487190000000     0.710100000000    -0.326289   
O313     O      0.427070000000     0.883350000000     0.711960000000    -0.340538   
O314     O      0.987600000000     0.876410000000     0.709350000000    -0.512935   
O315     O      0.433280000000     0.933260000000     0.734170000000    -0.610167   
O316     O      0.433170000000     0.933140000000     0.686270000000    -0.468475   
O317     O      0.432450000000     0.487910000000     0.736100000000    -0.473894   
O318     O      0.987760000000     0.932930000000     0.684830000000    -0.622875   
O319     O      0.432640000000     0.487800000000     0.684820000000    -0.623249   
O320     O      0.987970000000     0.932820000000     0.736100000000    -0.473705   
O321     O      0.459810000000     0.669880000000     0.527220000000    -0.355588   
O322     O      0.959830000000     0.641720000000     0.497130000000    -0.344006   
O323     O      0.393220000000     0.750800000000     0.458890000000    -0.349574   
O324     O      0.423300000000     0.778960000000     0.960050000000    -0.342452   
O325     O      0.393180000000     0.669900000000     0.459820000000    -0.352782   
O326     O      0.423270000000     0.641780000000     0.961380000000    -0.342857   
O327     O      0.462660000000     0.750860000000     0.527190000000    -0.344902   
O328     O      0.959910000000     0.778940000000     0.497160000000    -0.34289    
O329     O      0.427060000000     0.712020000000     0.537350000000    -0.340615   
O330     O      0.987580000000     0.709350000000     0.544260000000    -0.512728   
O331     O      0.384150000000     0.710690000000     0.494090000000    -0.513429   
O332     O      0.375440000000     0.709970000000     0.933570000000    -0.326498   
O333     O      0.433130000000     0.686310000000     0.487560000000    -0.468576   
O334     O      0.433230000000     0.734210000000     0.487460000000    -0.609538   
O335     O      0.027050000000     0.750810000000     0.961870000000    -0.349505   
O336     O      0.996980000000     0.778960000000     0.460610000000    -0.341988   
O337     O      0.960400000000     0.669890000000     0.893450000000    -0.35571    
O338     O      0.460470000000     0.641730000000     0.923530000000    -0.344074   
O339     O      0.957720000000     0.750870000000     0.893470000000    -0.344993   
O340     O      0.460380000000     0.778940000000     0.923510000000    -0.342987   
O341     O      0.027090000000     0.669890000000     0.960760000000    -0.352575   
O342     O      0.997000000000     0.641770000000     0.459280000000    -0.342274   
O343     O      0.036150000000     0.710760000000     0.926590000000    -0.513393   
O344     O      0.044840000000     0.709920000000     0.487100000000    -0.326474   
O345     O      0.993230000000     0.711960000000     0.883320000000    -0.340023   
O346     O      0.432700000000     0.709400000000     0.876400000000    -0.513751   
O347     O      0.987060000000     0.734220000000     0.933210000000    -0.609642   
O348     O      0.987150000000     0.686310000000     0.933100000000    -0.468149   
O349     O      0.987900000000     0.736130000000     0.487850000000    -0.47365    
O350     O      0.432550000000     0.684850000000     0.932930000000    -0.623169   
O351     O      0.987730000000     0.684840000000     0.487740000000    -0.622767   
O352     O      0.432380000000     0.736140000000     0.932810000000    -0.473916   
O353     O      0.250630000000     0.527190000000     0.461020000000    -0.355417   
O354     O      0.278800000000     0.497110000000     0.960990000000    -0.343881   
O355     O      0.169710000000     0.459200000000     0.527170000000    -0.349535   
O356     O      0.141560000000     0.960400000000     0.497100000000    -0.342616   
O357     O      0.250640000000     0.459460000000     0.527220000000    -0.352882   
O358     O      0.278760000000     0.961010000000     0.497140000000    -0.342787   
O359     O      0.169650000000     0.527170000000     0.457460000000    -0.345029   
O360     O      0.141570000000     0.497140000000     0.960170000000    -0.342903   
O361     O      0.208200000000     0.537390000000     0.493350000000    -0.340619   
O362     O      0.211380000000     0.544270000000     0.932880000000    -0.513528   
O363     O      0.210110000000     0.494050000000     0.536290000000    -0.513333   
O364     O      0.210360000000     0.933510000000     0.544960000000    -0.326288   
O365     O      0.234210000000     0.487550000000     0.487310000000    -0.468352   
O366     O      0.186310000000     0.487450000000     0.487200000000    -0.609774   
O367     O      0.169710000000     0.961380000000     0.893380000000    -0.349266   
O368     O      0.141560000000     0.460260000000     0.923470000000    -0.342683   
O369     O      0.250640000000     0.893470000000     0.959490000000    -0.355415   
O370     O      0.278800000000     0.923560000000     0.459600000000    -0.344002   
O371     O      0.169650000000     0.893490000000     0.963180000000    -0.344755   
O372     O      0.141570000000     0.923520000000     0.460390000000    -0.342776   
O373     O      0.250640000000     0.961280000000     0.893340000000    -0.352694   
O374     O      0.278760000000     0.459650000000     0.923430000000    -0.342766   
O375     O      0.210180000000     0.926600000000     0.884290000000    -0.513198   
O376     O      0.210320000000     0.487140000000     0.875600000000    -0.326174   
O377     O      0.208150000000     0.883270000000     0.927220000000    -0.340531   
O378     O      0.211410000000     0.876380000000     0.487680000000    -0.513363   
O379     O      0.186310000000     0.933210000000     0.933360000000    -0.609991   
O380     O      0.234210000000     0.933110000000     0.933260000000    -0.468409   
O381     O      0.184390000000     0.487860000000     0.932520000000    -0.473853   
O382     O      0.235680000000     0.932880000000     0.487840000000    -0.622983   
O383     O      0.235670000000     0.487770000000     0.932730000000    -0.622774   
O384     O      0.184390000000     0.932800000000     0.488040000000    -0.473801   
O385     O      0.460620000000     0.027260000000     0.169860000000    -0.355529   
O386     O      0.960640000000     0.997170000000     0.141700000000    -0.343387   
O387     O      0.527110000000     0.959280000000     0.250780000000    -0.349499   
O388     O      0.497020000000     0.460330000000     0.278930000000    -0.342718   
O389     O      0.527150000000     0.959450000000     0.169850000000    -0.352877   
O390     O      0.497070000000     0.461140000000     0.141730000000    -0.342873   
O391     O      0.457690000000     0.027240000000     0.250820000000    -0.344909   
O392     O      0.960350000000     0.997190000000     0.278890000000    -0.342236   
O393     O      0.493340000000     0.037380000000     0.212030000000    -0.340472   
O394     O      0.932810000000     0.044320000000     0.209290000000    -0.513073   
O395     O      0.536220000000     0.994090000000     0.210350000000    -0.512096   
O396     O      0.544900000000     0.433550000000     0.210140000000    -0.32603    
O397     O      0.487240000000     0.987580000000     0.186270000000    -0.468099   
O398     O      0.487130000000     0.987480000000     0.234160000000    -0.609784   
O399     O      0.893310000000     0.461540000000     0.250770000000    -0.349535   
O400     O      0.923390000000     0.960390000000     0.278920000000    -0.342469   
O401     O      0.959870000000     0.393460000000     0.169860000000    -0.355672   
O402     O      0.459760000000     0.423550000000     0.141710000000    -0.344059   
O403     O      0.962620000000     0.393490000000     0.250830000000    -0.3451     
O404     O      0.460050000000     0.423540000000     0.278900000000    -0.342739   
O405     O      0.893260000000     0.461190000000     0.169850000000    -0.352834   
O406     O      0.923350000000     0.959590000000     0.141730000000    -0.342929   
O407     O      0.884180000000     0.426650000000     0.210410000000    -0.513453   
O408     O      0.875520000000     0.987190000000     0.210100000000    -0.325761   
O409     O      0.927070000000     0.383360000000     0.211970000000    -0.340372   
O410     O      0.487600000000     0.376410000000     0.209350000000    -0.513254   
O411     O      0.933280000000     0.433250000000     0.234170000000    -0.609943   
O412     O      0.933180000000     0.433140000000     0.186270000000    -0.468501   
O413     O      0.932450000000     0.987910000000     0.236100000000    -0.473532   
O414     O      0.487760000000     0.432930000000     0.184830000000    -0.62303    
O415     O      0.932640000000     0.987800000000     0.184820000000    -0.623034   
O416     O      0.487970000000     0.432820000000     0.236100000000    -0.473867   
O417     O      0.959810000000     0.169880000000     0.027220000000    -0.355632   
O418     O      0.459830000000     0.141720000000     0.997130000000    -0.34353    
O419     O      0.893220000000     0.250800000000     0.958890000000    -0.349567   
O420     O      0.923300000000     0.278960000000     0.460060000000    -0.342484   
O421     O      0.893180000000     0.169900000000     0.959820000000    -0.352727   
O422     O      0.923270000000     0.141780000000     0.461380000000    -0.342891   
O423     O      0.962650000000     0.250860000000     0.027200000000    -0.344713   
O424     O      0.459900000000     0.278940000000     0.997160000000    -0.342381   
O425     O      0.927050000000     0.212020000000     0.037350000000    -0.340673   
O426     O      0.487580000000     0.209350000000     0.044260000000    -0.5132     
O427     O      0.884150000000     0.210690000000     0.994090000000    -0.512782   
O428     O      0.875440000000     0.209970000000     0.433570000000    -0.32656    
O429     O      0.933130000000     0.186310000000     0.987560000000    -0.468252   
O430     O      0.933230000000     0.234220000000     0.987460000000    -0.609602   
O431     O      0.527050000000     0.250800000000     0.461870000000    -0.349511   
O432     O      0.496980000000     0.278960000000     0.960610000000    -0.34242    
O433     O      0.460400000000     0.169890000000     0.393450000000    -0.355757   
O434     O      0.960470000000     0.141730000000     0.423530000000    -0.344042   
O435     O      0.457720000000     0.250870000000     0.393470000000    -0.344963   
O436     O      0.960380000000     0.278950000000     0.423510000000    -0.342873   
O437     O      0.527090000000     0.169890000000     0.460760000000    -0.352676   
O438     O      0.497000000000     0.141770000000     0.959280000000    -0.342763   
O439     O      0.536150000000     0.210760000000     0.426590000000    -0.513401   
O440     O      0.544840000000     0.209920000000     0.987100000000    -0.326038   
O441     O      0.493230000000     0.211970000000     0.383320000000    -0.340327   
O442     O      0.932700000000     0.209400000000     0.376400000000    -0.513418   
O443     O      0.487060000000     0.234220000000     0.433210000000    -0.609832   
O444     O      0.487150000000     0.186310000000     0.433100000000    -0.468427   
O445     O      0.487900000000     0.236130000000     0.987850000000    -0.473662   
O446     O      0.932550000000     0.184850000000     0.432930000000    -0.623221   
O447     O      0.487730000000     0.184840000000     0.987740000000    -0.622763   
O448     O      0.932380000000     0.236140000000     0.432810000000    -0.473978   
O449     O      0.750630000000     0.027190000000     0.961020000000    -0.355308   
O450     O      0.778800000000     0.997110000000     0.460990000000    -0.343319   
O451     O      0.669710000000     0.959190000000     0.027170000000    -0.349398   
O452     O      0.641560000000     0.460400000000     0.997100000000    -0.342149   
O453     O      0.750640000000     0.959460000000     0.027220000000    -0.352748   
O454     O      0.778760000000     0.461010000000     0.997140000000    -0.342471   
O455     O      0.669650000000     0.027170000000     0.957460000000    -0.34492    
O456     O      0.641570000000     0.997140000000     0.460170000000    -0.342348   
O457     O      0.708200000000     0.037390000000     0.993350000000    -0.340154   
O458     O      0.711370000000     0.044270000000     0.432890000000    -0.513301   
O459     O      0.710110000000     0.994050000000     0.036290000000    -0.512228   
O460     O      0.710360000000     0.433510000000     0.044960000000    -0.326301   
O461     O      0.734210000000     0.987550000000     0.987310000000    -0.467756   
O462     O      0.686310000000     0.987450000000     0.987200000000    -0.609394   
O463     O      0.669710000000     0.461380000000     0.393380000000    -0.349292   
O464     O      0.641560000000     0.960260000000     0.423470000000    -0.342651   
O465     O      0.750640000000     0.393470000000     0.459490000000    -0.355455   
O466     O      0.778800000000     0.423560000000     0.959600000000    -0.344      
O467     O      0.669650000000     0.393490000000     0.463180000000    -0.344766   
O468     O      0.641570000000     0.423520000000     0.960390000000    -0.342732   
O469     O      0.750640000000     0.461280000000     0.393340000000    -0.35272    
O470     O      0.778760000000     0.959650000000     0.423430000000    -0.342734   
O471     O      0.710180000000     0.426600000000     0.384290000000    -0.513179   
O472     O      0.710320000000     0.987140000000     0.375600000000    -0.325488   
O473     O      0.708150000000     0.383270000000     0.427220000000    -0.340514   
O474     O      0.711410000000     0.376380000000     0.987680000000    -0.512842   
O475     O      0.686310000000     0.433200000000     0.433360000000    -0.61009    
O476     O      0.734210000000     0.433110000000     0.433260000000    -0.46839    
O477     O      0.684390000000     0.987860000000     0.432520000000    -0.473535   
O478     O      0.735680000000     0.432880000000     0.987840000000    -0.622799   
O479     O      0.735670000000     0.987770000000     0.432730000000    -0.622748   
O480     O      0.684390000000     0.432800000000     0.988040000000    -0.473538   
O481     O      0.460620000000     0.027260000000     0.669850000000    -0.355626   
O482     O      0.960640000000     0.997170000000     0.641700000000    -0.343452   
O483     O      0.527110000000     0.959280000000     0.750780000000    -0.349498   
O484     O      0.497020000000     0.460330000000     0.778930000000    -0.342717   
O485     O      0.527150000000     0.959450000000     0.669850000000    -0.352881   
O486     O      0.497070000000     0.461140000000     0.641730000000    -0.342868   
O487     O      0.457690000000     0.027240000000     0.750820000000    -0.344902   
O488     O      0.960350000000     0.997190000000     0.778890000000    -0.342234   
O489     O      0.493340000000     0.037380000000     0.712030000000    -0.340475   
O490     O      0.932810000000     0.044320000000     0.709290000000    -0.513076   
O491     O      0.536220000000     0.994090000000     0.710350000000    -0.512097   
O492     O      0.544900000000     0.433550000000     0.710150000000    -0.325954   
O493     O      0.487240000000     0.987580000000     0.686270000000    -0.468101   
O494     O      0.487130000000     0.987480000000     0.734160000000    -0.609779   
O495     O      0.893310000000     0.461540000000     0.750770000000    -0.34954    
O496     O      0.923390000000     0.960390000000     0.778920000000    -0.342458   
O497     O      0.959870000000     0.393460000000     0.669860000000    -0.355522   
O498     O      0.459760000000     0.423550000000     0.641710000000    -0.344046   
O499     O      0.962620000000     0.393490000000     0.750830000000    -0.345104   
O500     O      0.460050000000     0.423540000000     0.778900000000    -0.34274    
O501     O      0.893260000000     0.461190000000     0.669850000000    -0.352834   
O502     O      0.923350000000     0.959590000000     0.641730000000    -0.342921   
O503     O      0.884180000000     0.426650000000     0.710410000000    -0.513455   
O504     O      0.875520000000     0.987190000000     0.710100000000    -0.325767   
O505     O      0.927070000000     0.383360000000     0.711960000000    -0.340563   
O506     O      0.487600000000     0.376410000000     0.709350000000    -0.513256   
O507     O      0.933280000000     0.433250000000     0.734170000000    -0.609943   
O508     O      0.933180000000     0.433140000000     0.686270000000    -0.4685     
O509     O      0.932450000000     0.987910000000     0.736100000000    -0.473527   
O510     O      0.487760000000     0.432930000000     0.684830000000    -0.623027   
O511     O      0.932640000000     0.987800000000     0.684820000000    -0.623036   
O512     O      0.487970000000     0.432820000000     0.736100000000    -0.473859   
O513     O      0.959810000000     0.169880000000     0.527220000000    -0.355711   
O514     O      0.459830000000     0.141720000000     0.497130000000    -0.344033   
O515     O      0.893220000000     0.250800000000     0.458890000000    -0.349571   
O516     O      0.923300000000     0.278960000000     0.960050000000    -0.342456   
O517     O      0.893180000000     0.169900000000     0.459820000000    -0.352775   
O518     O      0.923270000000     0.141780000000     0.961380000000    -0.342863   
O519     O      0.962660000000     0.250860000000     0.527190000000    -0.344878   
O520     O      0.459900000000     0.278940000000     0.497160000000    -0.342896   
O521     O      0.927060000000     0.212020000000     0.537350000000    -0.340621   
O522     O      0.487580000000     0.209350000000     0.544260000000    -0.51325    
O523     O      0.884150000000     0.210690000000     0.494090000000    -0.513324   
O524     O      0.875440000000     0.209970000000     0.933570000000    -0.326547   
O525     O      0.933130000000     0.186310000000     0.487560000000    -0.468531   
O526     O      0.933230000000     0.234220000000     0.487460000000    -0.609781   
O527     O      0.527050000000     0.250800000000     0.961870000000    -0.34949    
O528     O      0.496980000000     0.278960000000     0.460610000000    -0.342442   
O529     O      0.460400000000     0.169890000000     0.893450000000    -0.355756   
O530     O      0.960470000000     0.141730000000     0.923530000000    -0.344042   
O531     O      0.457720000000     0.250870000000     0.893470000000    -0.34497    
O532     O      0.960380000000     0.278950000000     0.923510000000    -0.342862   
O533     O      0.527090000000     0.169890000000     0.960760000000    -0.352661   
O534     O      0.497000000000     0.141770000000     0.459280000000    -0.342788   
O535     O      0.536150000000     0.210760000000     0.926590000000    -0.513412   
O536     O      0.544840000000     0.209920000000     0.487100000000    -0.326492   
O537     O      0.493230000000     0.211960000000     0.883320000000    -0.34052    
O538     O      0.932700000000     0.209400000000     0.876400000000    -0.513791   
O539     O      0.487060000000     0.234220000000     0.933210000000    -0.609837   
O540     O      0.487150000000     0.186310000000     0.933100000000    -0.468438   
O541     O      0.487900000000     0.236130000000     0.487850000000    -0.473923   
O542     O      0.932550000000     0.184850000000     0.932930000000    -0.623226   
O543     O      0.487730000000     0.184840000000     0.487740000000    -0.622958   
O544     O      0.932380000000     0.236140000000     0.932810000000    -0.473978   
O545     O      0.750630000000     0.027190000000     0.461020000000    -0.355349   
O546     O      0.778800000000     0.997110000000     0.960990000000    -0.343287   
O547     O      0.669710000000     0.959190000000     0.527170000000    -0.349461   
O548     O      0.641560000000     0.460400000000     0.497100000000    -0.342649   
O549     O      0.750640000000     0.959460000000     0.527220000000    -0.352817   
O550     O      0.778760000000     0.461010000000     0.497140000000    -0.34282    
O551     O      0.669650000000     0.027170000000     0.457460000000    -0.344924   
O552     O      0.641570000000     0.997140000000     0.960170000000    -0.342328   
O553     O      0.708200000000     0.037390000000     0.493350000000    -0.340649   
O554     O      0.711370000000     0.044270000000     0.932890000000    -0.513309   
O555     O      0.710110000000     0.994040000000     0.536290000000    -0.511869   
O556     O      0.710360000000     0.433510000000     0.544960000000    -0.326328   
O557     O      0.734210000000     0.987550000000     0.487310000000    -0.468041   
O558     O      0.686310000000     0.987450000000     0.487200000000    -0.609581   
O559     O      0.669710000000     0.461380000000     0.893380000000    -0.349292   
O560     O      0.641560000000     0.960260000000     0.923470000000    -0.342648   
O561     O      0.750640000000     0.393470000000     0.959490000000    -0.355437   
O562     O      0.778800000000     0.423560000000     0.459600000000    -0.344022   
O563     O      0.669650000000     0.393490000000     0.963180000000    -0.344745   
O564     O      0.641570000000     0.423520000000     0.460390000000    -0.342762   
O565     O      0.750640000000     0.461280000000     0.893340000000    -0.352725   
O566     O      0.778760000000     0.959650000000     0.923430000000    -0.342734   
O567     O      0.710180000000     0.426600000000     0.884290000000    -0.513177   
O568     O      0.710320000000     0.987140000000     0.875600000000    -0.325495   
O569     O      0.708150000000     0.383270000000     0.927220000000    -0.340519   
O570     O      0.711410000000     0.376380000000     0.487680000000    -0.513372   
O571     O      0.686310000000     0.433200000000     0.933360000000    -0.610093   
O572     O      0.734210000000     0.433110000000     0.933260000000    -0.468398   
O573     O      0.684390000000     0.987860000000     0.932520000000    -0.473541   
O574     O      0.735680000000     0.432880000000     0.487840000000    -0.622987   
O575     O      0.735670000000     0.987770000000     0.932730000000    -0.622752   
O576     O      0.684390000000     0.432800000000     0.488040000000    -0.47381    
O577     O      0.460620000000     0.527260000000     0.169850000000    -0.355648   
O578     O      0.960640000000     0.497160000000     0.141700000000    -0.343914   
O579     O      0.527110000000     0.459280000000     0.250780000000    -0.349545   
O580     O      0.497020000000     0.960330000000     0.278930000000    -0.342688   
O581     O      0.527150000000     0.459450000000     0.169850000000    -0.352928   
O582     O      0.497070000000     0.961140000000     0.141730000000    -0.342843   
O583     O      0.457690000000     0.527240000000     0.250820000000    -0.345004   
O584     O      0.960350000000     0.497190000000     0.278890000000    -0.342893   
O585     O      0.493340000000     0.537380000000     0.212030000000    -0.340449   
O586     O      0.932810000000     0.544320000000     0.209290000000    -0.513505   
O587     O      0.536220000000     0.494090000000     0.210350000000    -0.513657   
O588     O      0.544900000000     0.933550000000     0.210140000000    -0.326003   
O589     O      0.487240000000     0.487580000000     0.186270000000    -0.468406   
O590     O      0.487130000000     0.487480000000     0.234160000000    -0.61004    
O591     O      0.893310000000     0.961540000000     0.250770000000    -0.349504   
O592     O      0.923390000000     0.460400000000     0.278920000000    -0.342488   
O593     O      0.959870000000     0.893470000000     0.169860000000    -0.355696   
O594     O      0.459760000000     0.923560000000     0.141710000000    -0.343969   
O595     O      0.962620000000     0.893490000000     0.250830000000    -0.34513    
O596     O      0.460050000000     0.923540000000     0.278900000000    -0.342835   
O597     O      0.893260000000     0.961200000000     0.169850000000    -0.352825   
O598     O      0.923350000000     0.459590000000     0.141730000000    -0.342953   
O599     O      0.884180000000     0.926650000000     0.210410000000    -0.513663   
O600     O      0.875520000000     0.487190000000     0.210100000000    -0.326292   
O601     O      0.927070000000     0.883350000000     0.211970000000    -0.340281   
O602     O      0.487600000000     0.876410000000     0.209350000000    -0.513379   
O603     O      0.933280000000     0.933260000000     0.234170000000    -0.609722   
O604     O      0.933180000000     0.933140000000     0.186270000000    -0.468515   
O605     O      0.932450000000     0.487900000000     0.236100000000    -0.473979   
O606     O      0.487760000000     0.932930000000     0.184830000000    -0.623007   
O607     O      0.932640000000     0.487800000000     0.184820000000    -0.623251   
O608     O      0.487970000000     0.932820000000     0.236100000000    -0.473922   
O609     O      0.959810000000     0.669880000000     0.027220000000    -0.355493   
O610     O      0.459830000000     0.641720000000     0.997130000000    -0.34352    
O611     O      0.893220000000     0.750800000000     0.958890000000    -0.349578   
O612     O      0.923300000000     0.778960000000     0.460060000000    -0.342499   
O613     O      0.893180000000     0.669900000000     0.959820000000    -0.352732   
O614     O      0.923270000000     0.641780000000     0.461380000000    -0.342885   
O615     O      0.962650000000     0.750860000000     0.027200000000    -0.344721   
O616     O      0.459900000000     0.778940000000     0.997160000000    -0.342393   
O617     O      0.927050000000     0.712020000000     0.037350000000    -0.34067    
O618     O      0.487580000000     0.709350000000     0.044260000000    -0.51321    
O619     O      0.884150000000     0.710690000000     0.994090000000    -0.512777   
O620     O      0.875440000000     0.709970000000     0.433570000000    -0.326569   
O621     O      0.933130000000     0.686310000000     0.987560000000    -0.468235   
O622     O      0.933230000000     0.734210000000     0.987460000000    -0.609481   
O623     O      0.527050000000     0.750810000000     0.461870000000    -0.349602   
O624     O      0.496980000000     0.778960000000     0.960610000000    -0.342483   
O625     O      0.460400000000     0.669890000000     0.393450000000    -0.35575    
O626     O      0.960470000000     0.641730000000     0.423530000000    -0.344039   
O627     O      0.457720000000     0.750870000000     0.393470000000    -0.344995   
O628     O      0.960380000000     0.778940000000     0.423510000000    -0.342978   
O629     O      0.527090000000     0.669890000000     0.460760000000    -0.352673   
O630     O      0.497000000000     0.641770000000     0.959280000000    -0.342754   
O631     O      0.536150000000     0.710760000000     0.426590000000    -0.513404   
O632     O      0.544840000000     0.709920000000     0.987100000000    -0.326046   
O633     O      0.493230000000     0.711960000000     0.383320000000    -0.340517   
O634     O      0.932700000000     0.709400000000     0.376400000000    -0.513386   
O635     O      0.487060000000     0.734220000000     0.433210000000    -0.609823   
O636     O      0.487150000000     0.686310000000     0.433100000000    -0.468427   
O637     O      0.487900000000     0.736130000000     0.987850000000    -0.47367    
O638     O      0.932550000000     0.684850000000     0.432930000000    -0.623229   
O639     O      0.487730000000     0.684840000000     0.987740000000    -0.622762   
O640     O      0.932380000000     0.736140000000     0.432810000000    -0.473979   
O641     O      0.750630000000     0.527190000000     0.961020000000    -0.355399   
O642     O      0.778800000000     0.497110000000     0.460990000000    -0.343897   
O643     O      0.669710000000     0.459200000000     0.027170000000    -0.349462   
O644     O      0.641560000000     0.960400000000     0.997100000000    -0.342113   
O645     O      0.750640000000     0.459460000000     0.027220000000    -0.352803   
O646     O      0.778760000000     0.961010000000     0.997140000000    -0.342431   
O647     O      0.669650000000     0.527170000000     0.957450000000    -0.344991   
O648     O      0.641570000000     0.497140000000     0.460170000000    -0.34292    
O649     O      0.708200000000     0.537390000000     0.993350000000    -0.340144   
O650     O      0.711370000000     0.544270000000     0.432890000000    -0.513351   
O651     O      0.710110000000     0.494050000000     0.036290000000    -0.51346    
O652     O      0.710360000000     0.933510000000     0.044960000000    -0.32627    
O653     O      0.734210000000     0.487550000000     0.987310000000    -0.468071   
O654     O      0.686310000000     0.487450000000     0.987200000000    -0.609591   
O655     O      0.669710000000     0.961380000000     0.393380000000    -0.349262   
O656     O      0.641560000000     0.460260000000     0.423470000000    -0.342679   
O657     O      0.750640000000     0.893470000000     0.459490000000    -0.355435   
O658     O      0.778800000000     0.923560000000     0.959600000000    -0.343985   
O659     O      0.669650000000     0.893490000000     0.463180000000    -0.344768   
O660     O      0.641570000000     0.923520000000     0.960390000000    -0.342735   
O661     O      0.750640000000     0.961280000000     0.393340000000    -0.352697   
O662     O      0.778760000000     0.459650000000     0.423430000000    -0.342766   
O663     O      0.710180000000     0.926600000000     0.384290000000    -0.513199   
O664     O      0.710320000000     0.487140000000     0.375600000000    -0.326008   
O665     O      0.708150000000     0.883270000000     0.427220000000    -0.34053    
O666     O      0.711410000000     0.876380000000     0.987680000000    -0.512836   
O667     O      0.686310000000     0.933210000000     0.433360000000    -0.60999    
O668     O      0.734210000000     0.933110000000     0.433260000000    -0.468402   
O669     O      0.684390000000     0.487860000000     0.432520000000    -0.473851   
O670     O      0.735680000000     0.932880000000     0.987840000000    -0.622792   
O671     O      0.735670000000     0.487770000000     0.432730000000    -0.622964   
O672     O      0.684390000000     0.932800000000     0.988040000000    -0.473533   
O673     O      0.460620000000     0.527260000000     0.669850000000    -0.355648   
O674     O      0.960640000000     0.497160000000     0.641700000000    -0.343909   
O675     O      0.527110000000     0.459280000000     0.750780000000    -0.34953    
O676     O      0.497020000000     0.960330000000     0.778930000000    -0.342689   
O677     O      0.527150000000     0.459450000000     0.669850000000    -0.352946   
O678     O      0.497070000000     0.961140000000     0.641730000000    -0.342837   
O679     O      0.457690000000     0.527240000000     0.750820000000    -0.345001   
O680     O      0.960350000000     0.497190000000     0.778890000000    -0.34289    
O681     O      0.493340000000     0.537380000000     0.712030000000    -0.340449   
O682     O      0.932810000000     0.544320000000     0.709290000000    -0.513506   
O683     O      0.536220000000     0.494090000000     0.710350000000    -0.513332   
O684     O      0.544900000000     0.933550000000     0.710140000000    -0.325968   
O685     O      0.487240000000     0.487580000000     0.686270000000    -0.468408   
O686     O      0.487130000000     0.487480000000     0.734160000000    -0.610039   
O687     O      0.893310000000     0.961540000000     0.750770000000    -0.349495   
O688     O      0.923390000000     0.460400000000     0.778920000000    -0.342489   
O689     O      0.959870000000     0.893470000000     0.669860000000    -0.355546   
O690     O      0.459760000000     0.923560000000     0.641710000000    -0.343956   
O691     O      0.962620000000     0.893490000000     0.750830000000    -0.345143   
O692     O      0.460050000000     0.923540000000     0.778900000000    -0.342836   
O693     O      0.893260000000     0.961200000000     0.669850000000    -0.352826   
O694     O      0.923350000000     0.459590000000     0.641730000000    -0.342948   
O695     O      0.884180000000     0.926650000000     0.710410000000    -0.513665   
O696     O      0.875520000000     0.487190000000     0.710100000000    -0.326295   
O697     O      0.927070000000     0.883350000000     0.711960000000    -0.340478   
O698     O      0.487600000000     0.876410000000     0.709350000000    -0.513381   
O699     O      0.933280000000     0.933260000000     0.734170000000    -0.609911   
O700     O      0.933180000000     0.933140000000     0.686270000000    -0.468512   
O701     O      0.932450000000     0.487900000000     0.736100000000    -0.47398    
O702     O      0.487760000000     0.932930000000     0.684830000000    -0.623008   
O703     O      0.932640000000     0.487800000000     0.684820000000    -0.623252   
O704     O      0.487970000000     0.932820000000     0.736100000000    -0.473921   
O705     O      0.959810000000     0.669880000000     0.527220000000    -0.355572   
O706     O      0.459830000000     0.641720000000     0.497130000000    -0.344024   
O707     O      0.893220000000     0.750800000000     0.458890000000    -0.349584   
O708     O      0.923300000000     0.778960000000     0.960050000000    -0.34247    
O709     O      0.893180000000     0.669900000000     0.459820000000    -0.352781   
O710     O      0.923270000000     0.641780000000     0.961380000000    -0.342857   
O711     O      0.962660000000     0.750860000000     0.527190000000    -0.344886   
O712     O      0.459900000000     0.778940000000     0.497160000000    -0.342907   
O713     O      0.927060000000     0.712020000000     0.537350000000    -0.340617   
O714     O      0.487580000000     0.709350000000     0.544260000000    -0.51326    
O715     O      0.884150000000     0.710690000000     0.494090000000    -0.51332    
O716     O      0.875440000000     0.709970000000     0.933570000000    -0.326556   
O717     O      0.933130000000     0.686310000000     0.487560000000    -0.468514   
O718     O      0.933230000000     0.734210000000     0.487460000000    -0.60966    
O719     O      0.527050000000     0.750810000000     0.961870000000    -0.349584   
O720     O      0.496980000000     0.778960000000     0.460610000000    -0.342503   
O721     O      0.460400000000     0.669890000000     0.893450000000    -0.355754   
O722     O      0.960470000000     0.641730000000     0.923530000000    -0.34404    
O723     O      0.457720000000     0.750870000000     0.893470000000    -0.344998   
O724     O      0.960380000000     0.778940000000     0.923510000000    -0.342967   
O725     O      0.527090000000     0.669890000000     0.960760000000    -0.352656   
O726     O      0.497000000000     0.641770000000     0.459280000000    -0.342782   
O727     O      0.536150000000     0.710760000000     0.926590000000    -0.513414   
O728     O      0.544840000000     0.709920000000     0.487100000000    -0.3265     
O729     O      0.493230000000     0.711960000000     0.883320000000    -0.340523   
O730     O      0.932700000000     0.709400000000     0.876400000000    -0.513759   
O731     O      0.487060000000     0.734220000000     0.933210000000    -0.609827   
O732     O      0.487150000000     0.686310000000     0.933100000000    -0.468435   
O733     O      0.487900000000     0.736130000000     0.487850000000    -0.473931   
O734     O      0.932550000000     0.684850000000     0.932930000000    -0.623234   
O735     O      0.487730000000     0.684840000000     0.487740000000    -0.622956   
O736     O      0.932380000000     0.736140000000     0.932810000000    -0.473979   
O737     O      0.750630000000     0.527190000000     0.461020000000    -0.355432   
O738     O      0.778800000000     0.497110000000     0.960990000000    -0.343869   
O739     O      0.669710000000     0.459200000000     0.527170000000    -0.349538   
O740     O      0.641560000000     0.960400000000     0.497100000000    -0.34261    
O741     O      0.750640000000     0.459460000000     0.527220000000    -0.352882   
O742     O      0.778760000000     0.961010000000     0.497140000000    -0.342929   
O743     O      0.669650000000     0.527170000000     0.457460000000    -0.345011   
O744     O      0.641570000000     0.497140000000     0.960170000000    -0.342895   
O745     O      0.708200000000     0.537390000000     0.493350000000    -0.340624   
O746     O      0.711370000000     0.544270000000     0.932880000000    -0.51352    
O747     O      0.710110000000     0.494050000000     0.536290000000    -0.513481   
O748     O      0.710360000000     0.933510000000     0.544960000000    -0.326289   
O749     O      0.734210000000     0.487550000000     0.487310000000    -0.468347   
O750     O      0.686310000000     0.487450000000     0.487200000000    -0.609776   
O751     O      0.669710000000     0.961380000000     0.893380000000    -0.349266   
O752     O      0.641560000000     0.460260000000     0.923470000000    -0.342677   
O753     O      0.750640000000     0.893470000000     0.959490000000    -0.355416   
O754     O      0.778800000000     0.923560000000     0.459600000000    -0.344005   
O755     O      0.669650000000     0.893490000000     0.963180000000    -0.344755   
O756     O      0.641570000000     0.923520000000     0.460390000000    -0.342771   
O757     O      0.750640000000     0.961280000000     0.893340000000    -0.352701   
O758     O      0.778760000000     0.459650000000     0.923430000000    -0.342767   
O759     O      0.710180000000     0.926600000000     0.884290000000    -0.5132     
O760     O      0.710320000000     0.487140000000     0.875600000000    -0.326177   
O761     O      0.708150000000     0.883270000000     0.927220000000    -0.340531   
O762     O      0.711410000000     0.876380000000     0.487680000000    -0.513364   
O763     O      0.686310000000     0.933210000000     0.933360000000    -0.609992   
O764     O      0.734210000000     0.933110000000     0.933260000000    -0.468408   
O765     O      0.684390000000     0.487860000000     0.932520000000    -0.473847   
O766     O      0.735680000000     0.932880000000     0.487840000000    -0.622987   
O767     O      0.735670000000     0.487770000000     0.932730000000    -0.622966   
O768     O      0.684390000000     0.932800000000     0.488040000000    -0.473801   
Zr1      Zr     0.459200000000     0.010050000000     0.210350000000     1.29112    
Zr2      Zr     0.009890000000     0.459710000000     0.210310000000     1.29232    
Zr3      Zr     0.410530000000     0.961020000000     0.210310000000     1.29355    
Zr4      Zr     0.961210000000     0.410680000000     0.210360000000     1.29254    
Zr5      Zr     0.460200000000     0.460360000000     0.165060000000     1.26396    
Zr6      Zr     0.960210000000     0.960360000000     0.255550000000     1.26107    
Zr7      Zr     0.961170000000     0.210380000000     0.010010000000     1.2912     
Zr8      Zr     0.410460000000     0.210350000000     0.459710000000     1.29342    
Zr9      Zr     0.009820000000     0.210350000000     0.960960000000     1.29238    
Zr10     Zr     0.459110000000     0.210390000000     0.410650000000     1.29229    
Zr11     Zr     0.960140000000     0.165090000000     0.460330000000     1.26402    
Zr12     Zr     0.460140000000     0.255590000000     0.960330000000     1.26075    
Zr13     Zr     0.210120000000     0.010020000000     0.459280000000     1.29118    
Zr14     Zr     0.210180000000     0.459670000000     0.009960000000     1.29226    
Zr15     Zr     0.210180000000     0.960980000000     0.410610000000     1.2936     
Zr16     Zr     0.210130000000     0.410640000000     0.961290000000     1.29224    
Zr17     Zr     0.255420000000     0.460330000000     0.460290000000     1.26409    
Zr18     Zr     0.164930000000     0.960330000000     0.960280000000     1.26119    
Zr19     Zr     0.459200000000     0.010050000000     0.710350000000     1.29106    
Zr20     Zr     0.009890000000     0.459710000000     0.710310000000     1.29231    
Zr21     Zr     0.410530000000     0.961020000000     0.710310000000     1.29354    
Zr22     Zr     0.961210000000     0.410680000000     0.710360000000     1.29254    
Zr23     Zr     0.460200000000     0.460360000000     0.665060000000     1.26396    
Zr24     Zr     0.960210000000     0.960360000000     0.755550000000     1.26107    
Zr25     Zr     0.961170000000     0.210380000000     0.510010000000     1.29235    
Zr26     Zr     0.410460000000     0.210350000000     0.959710000000     1.29343    
Zr27     Zr     0.009820000000     0.210350000000     0.460960000000     1.29232    
Zr28     Zr     0.459110000000     0.210390000000     0.910650000000     1.29231    
Zr29     Zr     0.960140000000     0.165090000000     0.960330000000     1.26406    
Zr30     Zr     0.460140000000     0.255590000000     0.460330000000     1.26072    
Zr31     Zr     0.210120000000     0.010020000000     0.959280000000     1.29121    
Zr32     Zr     0.210180000000     0.459670000000     0.509960000000     1.29329    
Zr33     Zr     0.210180000000     0.960980000000     0.910610000000     1.29359    
Zr34     Zr     0.210130000000     0.410640000000     0.461290000000     1.2922     
Zr35     Zr     0.255420000000     0.460330000000     0.960290000000     1.26415    
Zr36     Zr     0.164930000000     0.960330000000     0.460280000000     1.26115    
Zr37     Zr     0.459200000000     0.510050000000     0.210350000000     1.29223    
Zr38     Zr     0.009890000000     0.959710000000     0.210310000000     1.29239    
Zr39     Zr     0.410530000000     0.461020000000     0.210310000000     1.29333    
Zr40     Zr     0.961210000000     0.910680000000     0.210360000000     1.29241    
Zr41     Zr     0.460200000000     0.960360000000     0.165060000000     1.26401    
Zr42     Zr     0.960210000000     0.460370000000     0.255550000000     1.26103    
Zr43     Zr     0.961170000000     0.710380000000     0.010010000000     1.29125    
Zr44     Zr     0.410460000000     0.710350000000     0.459710000000     1.29349    
Zr45     Zr     0.009820000000     0.710350000000     0.960960000000     1.29232    
Zr46     Zr     0.459110000000     0.710390000000     0.410650000000     1.29232    
Zr47     Zr     0.960140000000     0.665090000000     0.460330000000     1.26403    
Zr48     Zr     0.460140000000     0.755590000000     0.960330000000     1.26074    
Zr49     Zr     0.210120000000     0.510020000000     0.459280000000     1.29239    
Zr50     Zr     0.210180000000     0.959670000000     0.009960000000     1.29223    
Zr51     Zr     0.210180000000     0.460980000000     0.410610000000     1.29342    
Zr52     Zr     0.210130000000     0.910640000000     0.961290000000     1.29216    
Zr53     Zr     0.255420000000     0.960330000000     0.460290000000     1.26414    
Zr54     Zr     0.164930000000     0.460330000000     0.960280000000     1.26106    
Zr55     Zr     0.459200000000     0.510050000000     0.710350000000     1.29223    
Zr56     Zr     0.009890000000     0.959710000000     0.710310000000     1.29238    
Zr57     Zr     0.410530000000     0.461020000000     0.710310000000     1.29333    
Zr58     Zr     0.961210000000     0.910680000000     0.710360000000     1.29243    
Zr59     Zr     0.460200000000     0.960360000000     0.665060000000     1.26403    
Zr60     Zr     0.960210000000     0.460370000000     0.755550000000     1.26103    
Zr61     Zr     0.961170000000     0.710380000000     0.510010000000     1.29239    
Zr62     Zr     0.410460000000     0.710350000000     0.959710000000     1.29349    
Zr63     Zr     0.009820000000     0.710350000000     0.460960000000     1.29225    
Zr64     Zr     0.459110000000     0.710390000000     0.910650000000     1.29231    
Zr65     Zr     0.960140000000     0.665090000000     0.960330000000     1.26407    
Zr66     Zr     0.460140000000     0.755590000000     0.460330000000     1.26072    
Zr67     Zr     0.210120000000     0.510020000000     0.959280000000     1.29235    
Zr68     Zr     0.210180000000     0.959670000000     0.509960000000     1.29334    
Zr69     Zr     0.210180000000     0.460980000000     0.910610000000     1.29342    
Zr70     Zr     0.210130000000     0.910640000000     0.461290000000     1.29211    
Zr71     Zr     0.255420000000     0.960330000000     0.960290000000     1.2642     
Zr72     Zr     0.164930000000     0.460330000000     0.460280000000     1.26103    
Zr73     Zr     0.959200000000     0.010050000000     0.210350000000     1.29122    
Zr74     Zr     0.509890000000     0.459710000000     0.210310000000     1.29354    
Zr75     Zr     0.910530000000     0.961020000000     0.210310000000     1.29342    
Zr76     Zr     0.461200000000     0.410680000000     0.210360000000     1.29243    
Zr77     Zr     0.960200000000     0.460360000000     0.165060000000     1.26413    
Zr78     Zr     0.460210000000     0.960360000000     0.255550000000     1.26104    
Zr79     Zr     0.461170000000     0.210380000000     0.010010000000     1.29119    
Zr80     Zr     0.910460000000     0.210350000000     0.459700000000     1.29338    
Zr81     Zr     0.509820000000     0.210350000000     0.960960000000     1.29343    
Zr82     Zr     0.959110000000     0.210390000000     0.410650000000     1.29228    
Zr83     Zr     0.460140000000     0.165090000000     0.460330000000     1.26398    
Zr84     Zr     0.960140000000     0.255590000000     0.960330000000     1.2608     
Zr85     Zr     0.710120000000     0.010020000000     0.459280000000     1.29118    
Zr86     Zr     0.710180000000     0.459670000000     0.009960000000     1.29225    
Zr87     Zr     0.710180000000     0.960980000000     0.410610000000     1.2936     
Zr88     Zr     0.710130000000     0.410640000000     0.961290000000     1.29224    
Zr89     Zr     0.755420000000     0.460330000000     0.460290000000     1.26411    
Zr90     Zr     0.664930000000     0.960330000000     0.960280000000     1.26119    
Zr91     Zr     0.959200000000     0.010050000000     0.710350000000     1.29116    
Zr92     Zr     0.509890000000     0.459710000000     0.710310000000     1.29349    
Zr93     Zr     0.910530000000     0.961020000000     0.710310000000     1.29344    
Zr94     Zr     0.461200000000     0.410680000000     0.710360000000     1.29244    
Zr95     Zr     0.960200000000     0.460360000000     0.665060000000     1.26414    
Zr96     Zr     0.460210000000     0.960360000000     0.755550000000     1.26103    
Zr97     Zr     0.461170000000     0.210380000000     0.510010000000     1.29227    
Zr98     Zr     0.910460000000     0.210350000000     0.959700000000     1.29339    
Zr99     Zr     0.509820000000     0.210350000000     0.460960000000     1.29336    
Zr100    Zr     0.959110000000     0.210390000000     0.910650000000     1.29231    
Zr101    Zr     0.460140000000     0.165090000000     0.960330000000     1.26402    
Zr102    Zr     0.960140000000     0.255590000000     0.460330000000     1.26078    
Zr103    Zr     0.710120000000     0.010020000000     0.959280000000     1.29121    
Zr104    Zr     0.710180000000     0.459670000000     0.509960000000     1.2933     
Zr105    Zr     0.710180000000     0.960980000000     0.910610000000     1.2936     
Zr106    Zr     0.710130000000     0.410640000000     0.461290000000     1.2922     
Zr107    Zr     0.755420000000     0.460330000000     0.960290000000     1.26417    
Zr108    Zr     0.664930000000     0.960330000000     0.460280000000     1.26115    
Zr109    Zr     0.959200000000     0.510050000000     0.210350000000     1.29236    
Zr110    Zr     0.509890000000     0.959710000000     0.210310000000     1.29349    
Zr111    Zr     0.910530000000     0.461020000000     0.210310000000     1.29334    
Zr112    Zr     0.461200000000     0.910680000000     0.210360000000     1.29234    
Zr113    Zr     0.960200000000     0.960360000000     0.165060000000     1.26422    
Zr114    Zr     0.460210000000     0.460370000000     0.255550000000     1.26093    
Zr115    Zr     0.461170000000     0.710380000000     0.010010000000     1.29123    
Zr116    Zr     0.910460000000     0.710350000000     0.459700000000     1.29344    
Zr117    Zr     0.509820000000     0.710350000000     0.960960000000     1.29337    
Zr118    Zr     0.959110000000     0.710390000000     0.410650000000     1.29231    
Zr119    Zr     0.460140000000     0.665090000000     0.460330000000     1.26398    
Zr120    Zr     0.960140000000     0.755590000000     0.960330000000     1.2608     
Zr121    Zr     0.710120000000     0.510020000000     0.459280000000     1.29239    
Zr122    Zr     0.710180000000     0.959670000000     0.009960000000     1.29223    
Zr123    Zr     0.710180000000     0.460980000000     0.410610000000     1.29343    
Zr124    Zr     0.710130000000     0.910640000000     0.961290000000     1.29215    
Zr125    Zr     0.755420000000     0.960330000000     0.460290000000     1.26417    
Zr126    Zr     0.664930000000     0.460330000000     0.960280000000     1.26106    
Zr127    Zr     0.959200000000     0.510050000000     0.710350000000     1.29235    
Zr128    Zr     0.509890000000     0.959710000000     0.710310000000     1.29348    
Zr129    Zr     0.910530000000     0.461020000000     0.710310000000     1.29333    
Zr130    Zr     0.461200000000     0.910680000000     0.710360000000     1.29234    
Zr131    Zr     0.960200000000     0.960360000000     0.665060000000     1.26423    
Zr132    Zr     0.460210000000     0.460370000000     0.755550000000     1.26092    
Zr133    Zr     0.461170000000     0.710380000000     0.510010000000     1.29232    
Zr134    Zr     0.910460000000     0.710350000000     0.959700000000     1.29345    
Zr135    Zr     0.509820000000     0.710350000000     0.460960000000     1.2933     
Zr136    Zr     0.959110000000     0.710390000000     0.910650000000     1.29233    
Zr137    Zr     0.460140000000     0.665090000000     0.960330000000     1.26403    
Zr138    Zr     0.960140000000     0.755590000000     0.460330000000     1.26077    
Zr139    Zr     0.710120000000     0.510020000000     0.959280000000     1.29235    
Zr140    Zr     0.710180000000     0.959670000000     0.509960000000     1.29332    
Zr141    Zr     0.710180000000     0.460980000000     0.910610000000     1.29343    
Zr142    Zr     0.710130000000     0.910640000000     0.461290000000     1.29211    
Zr143    Zr     0.755420000000     0.960330000000     0.960290000000     1.26422    
Zr144    Zr     0.664930000000     0.460330000000     0.460280000000     1.26103    


