data_structure

_audit_creation_method RASPA-1.0
_audit_creation_date 2023-5-19
_audit_author_name 'Poobodin Mano'

_cell_length_a    32.7292
_cell_length_b    49.95
_cell_length_c    49.9587
_cell_angle_alpha 90
_cell_angle_beta  90
_cell_angle_gamma 90
_cell_volume      81673.7

_symmetry_cell_setting          triclinic
_symmetry_space_group_name_Hall 'P 1'
_symmetry_space_group_name_H-M  'P 1'
_symmetry_Int_Tables_number     1

_symmetry_equiv_pos_as_xyz 'x,y,z'

loop_
_atom_site_label
_atom_site_type_symbol
_atom_site_fract_x
_atom_site_fract_y
_atom_site_fract_z
_atom_site_charge
C1       C      0.580700000000     0.376210000000     0.994200000000     0.331326   
C2       C      0.217300000000     0.377020000000     0.354670000000     0.333429   
C3       C      0.216950000000     0.376400000000     0.993790000000     0.33201    
C4       C      0.576920000000     0.378020000000     0.355150000000     0.334615   
C5       C      0.579240000000     0.972600000000     0.354940000000     0.333951   
C6       C      0.216150000000     0.973380000000     0.993980000000     0.332493   
C7       C      0.218480000000     0.971800000000     0.354800000000     0.332941   
C8       C      0.581360000000     0.973440000000     0.994180000000     0.331761   
C9       C      0.466160000000     0.244280000000     0.126170000000     0.334786   
C10      C      0.329470000000     0.104770000000     0.126890000000     0.333583   
C11      C      0.330020000000     0.243910000000     0.126240000000     0.335576   
C12      C      0.469840000000     0.105200000000     0.127970000000     0.33444    
C13      C      0.467390000000     0.104990000000     0.222550000000     0.333743   
C14      C      0.330580000000     0.244080000000     0.223270000000     0.334991   
C15      C      0.328120000000     0.104870000000     0.221620000000     0.333809   
C16      C      0.465390000000     0.244250000000     0.223390000000     0.335322   
C17      C      0.288160000000     0.018610000000     0.032400000000    -0.0662534  
C18      C      0.264780000000     0.024770000000     0.055160000000     0.0220861  
C19      C      0.226030000000     0.013110000000     0.058170000000    -0.0645234  
C20      C      0.210790000000     0.995710000000     0.038670000000     0.0199642  
C21      C      0.233680000000     0.990120000000     0.015500000000    -0.0982518  
C22      C      0.272580000000     0.001670000000     0.012610000000     0.0225404  
C23      C      0.280180000000     0.044210000000     0.075080000000     0.020934   
C24      C      0.319170000000     0.041110000000     0.086370000000    -0.0642457  
C25      C      0.334540000000     0.060300000000     0.104070000000     0.018396   
C26      C      0.311520000000     0.083240000000     0.110340000000    -0.0973133  
C27      C      0.272280000000     0.086130000000     0.099280000000     0.0192658  
C28      C      0.256590000000     0.066640000000     0.082040000000    -0.0640367  
C29      C      0.244580000000     0.001060000000     0.286530000000    -0.0632082  
C30      C      0.266770000000     0.023970000000     0.293890000000     0.0202728  
C31      C      0.275330000000     0.028490000000     0.321030000000    -0.0642726  
C32      C      0.260910000000     0.010980000000     0.340580000000     0.0176765  
C33      C      0.237150000000     0.988590000000     0.333520000000    -0.0958516  
C34      C      0.229630000000     0.983600000000     0.306200000000     0.0167251  
C35      C      0.279590000000     0.044030000000     0.273770000000     0.0210918  
C36      C      0.302330000000     0.036650000000     0.251100000000    -0.0645221  
C37      C      0.317330000000     0.056280000000     0.233620000000     0.0177988  
C38      C      0.309350000000     0.083590000000     0.238360000000    -0.0968469  
C39      C      0.285020000000     0.090660000000     0.260490000000     0.018007   
C40      C      0.270530000000     0.071140000000     0.278010000000    -0.0650769  
C41      C      0.274940000000     0.319910000000     0.026940000000    -0.0666606  
C42      C      0.266740000000     0.324270000000     0.054140000000     0.0212007  
C43      C      0.244100000000     0.346900000000     0.061750000000    -0.0650176  
C44      C      0.228460000000     0.364300000000     0.042260000000     0.0176485  
C45      C      0.235700000000     0.359470000000     0.014880000000    -0.0973791  
C46      C      0.259780000000     0.337300000000     0.007570000000     0.0209483  
C47      C      0.280420000000     0.304310000000     0.074080000000     0.0210031  
C48      C      0.272370000000     0.277100000000     0.069620000000    -0.0660423  
C49      C      0.287480000000     0.257710000000     0.087020000000     0.0194323  
C50      C      0.311360000000     0.265010000000     0.109270000000    -0.0986108  
C51      C      0.318470000000     0.292390000000     0.114180000000     0.01815    
C52      C      0.302880000000     0.311900000000     0.096790000000    -0.0651061  
C53      C      0.529000000000     0.031790000000     0.028190000000    -0.0666511  
C54      C      0.534140000000     0.025670000000     0.055390000000     0.0212183  
C55      C      0.553130000000     0.001500000000     0.062560000000    -0.0641208  
C56      C      0.568040000000     0.984200000000     0.042750000000     0.0170867  
C57      C      0.563620000000     0.990620000000     0.015440000000    -0.0969289  
C58      C      0.543360000000     0.014460000000     0.008470000000     0.0220756  
C59      C      0.520730000000     0.045180000000     0.075880000000     0.0208322  
C60      C      0.532050000000     0.072140000000     0.073340000000    -0.0652045  
C61      C      0.516770000000     0.091310000000     0.090930000000     0.0188674  
C62      C      0.489410000000     0.084070000000     0.111430000000    -0.0970176  
C63      C      0.479280000000     0.056840000000     0.114610000000     0.0177284  
C64      C      0.495020000000     0.037530000000     0.097050000000    -0.0644358  
C65      C      0.517770000000     0.278240000000     0.281720000000    -0.0662656  
C66      C      0.512610000000     0.305450000000     0.275620000000     0.0213403  
C67      C      0.493590000000     0.312630000000     0.251470000000    -0.0652312  
C68      C      0.478680000000     0.292820000000     0.234170000000     0.0182808  
C69      C      0.483130000000     0.265510000000     0.240570000000    -0.0985477  
C70      C      0.503420000000     0.258530000000     0.264390000000     0.0201088  
C71      C      0.526020000000     0.325930000000     0.295140000000     0.0206952  
C72      C      0.514730000000     0.323380000000     0.322090000000    -0.065096   
C73      C      0.530010000000     0.340960000000     0.341270000000     0.0187875  
C74      C      0.557340000000     0.361480000000     0.334030000000    -0.0970509  
C75      C      0.567430000000     0.364680000000     0.306800000000     0.0177314  
C76      C      0.551700000000     0.347120000000     0.287490000000    -0.0644185  
C77      C      0.569610000000     0.012770000000     0.291050000000    -0.0640627  
C78      C      0.530850000000     0.024400000000     0.294080000000     0.0213227  
C79      C      0.507210000000     0.017910000000     0.316630000000    -0.0647053  
C80      C      0.522610000000     0.000720000000     0.336270000000     0.0202946  
C81      C      0.561580000000     0.989270000000     0.333410000000    -0.0980292  
C82      C      0.584670000000     0.995140000000     0.310390000000     0.0184157  
C83      C      0.515710000000     0.044120000000     0.274360000000     0.021338   
C84      C      0.539380000000     0.066650000000     0.267860000000    -0.0644517  
C85      C      0.524000000000     0.086300000000     0.250670000000     0.0192807  
C86      C      0.485020000000     0.083450000000     0.239230000000    -0.0974575  
C87      C      0.461900000000     0.060450000000     0.245120000000     0.0186907  
C88      C      0.476950000000     0.041100000000     0.262760000000    -0.0644043  
C89      C      0.320750000000     0.308280000000     0.263020000000    -0.0648167  
C90      C      0.281980000000     0.305280000000     0.274650000000     0.021731   
C91      C      0.258560000000     0.282540000000     0.268470000000    -0.0650329  
C92      C      0.274140000000     0.262740000000     0.251530000000     0.0192916  
C93      C      0.313060000000     0.265620000000     0.240010000000    -0.0984584  
C94      C      0.335980000000     0.288770000000     0.245620000000     0.0203776  
C95      C      0.266580000000     0.325220000000     0.294100000000     0.0209812  
C96      C      0.290180000000     0.332150000000     0.316530000000    -0.0639151  
C97      C      0.274490000000     0.349400000000     0.336020000000     0.0190366  
C98      C      0.235250000000     0.360470000000     0.333140000000    -0.0967642  
C99      C      0.212230000000     0.354210000000     0.310190000000     0.0181147  
C100     C      0.227600000000     0.336510000000     0.291000000000    -0.0641864  
C101     C      0.476680000000     0.308250000000     0.086110000000    -0.0647661  
C102     C      0.515640000000     0.305160000000     0.074760000000     0.0214476  
C103     C      0.538990000000     0.282510000000     0.081360000000    -0.0647809  
C104     C      0.523150000000     0.262870000000     0.098370000000     0.0193284  
C105     C      0.483990000000     0.265800000000     0.109550000000    -0.0986034  
C106     C      0.461160000000     0.288890000000     0.103590000000     0.020202   
C107     C      0.531250000000     0.324810000000     0.055100000000     0.0216687  
C108     C      0.507890000000     0.331390000000     0.032460000000    -0.0653825  
C109     C      0.523730000000     0.348390000000     0.012810000000     0.0210371  
C110     C      0.562880000000     0.359580000000     0.015720000000    -0.0968224  
C111     C      0.585720000000     0.353630000000     0.038820000000     0.0196246  
C112     C      0.570210000000     0.336160000000     0.058180000000    -0.0646043  
C113     C      0.580700000000     0.376210000000     0.494200000000     0.334782   
C114     C      0.217300000000     0.377020000000     0.854670000000     0.333364   
C115     C      0.216950000000     0.376400000000     0.493790000000     0.33568    
C116     C      0.576920000000     0.378020000000     0.855150000000     0.334604   
C117     C      0.579240000000     0.972600000000     0.854940000000     0.33395    
C118     C      0.216150000000     0.973380000000     0.493980000000     0.336181   
C119     C      0.218480000000     0.971800000000     0.854800000000     0.332941   
C120     C      0.581360000000     0.973440000000     0.494180000000     0.33543    
C121     C      0.466160000000     0.244280000000     0.626170000000     0.334781   
C122     C      0.329470000000     0.104770000000     0.626890000000     0.333578   
C123     C      0.330020000000     0.243910000000     0.626240000000     0.33557    
C124     C      0.469840000000     0.105200000000     0.627960000000     0.33437    
C125     C      0.467390000000     0.104990000000     0.722550000000     0.333748   
C126     C      0.330580000000     0.244080000000     0.723270000000     0.334995   
C127     C      0.328120000000     0.104870000000     0.721620000000     0.333814   
C128     C      0.465390000000     0.244250000000     0.723390000000     0.335318   
C129     C      0.288160000000     0.018610000000     0.532400000000    -0.0658916  
C130     C      0.264780000000     0.024770000000     0.555150000000     0.0220122  
C131     C      0.226030000000     0.013110000000     0.558180000000    -0.0648281  
C132     C      0.210790000000     0.995710000000     0.538670000000     0.0205498  
C133     C      0.233680000000     0.990120000000     0.515500000000    -0.100114   
C134     C      0.272580000000     0.001670000000     0.512610000000     0.020902   
C135     C      0.280180000000     0.044210000000     0.575080000000     0.020896   
C136     C      0.319170000000     0.041110000000     0.586370000000    -0.0642649  
C137     C      0.334540000000     0.060300000000     0.604070000000     0.0183649  
C138     C      0.311520000000     0.083240000000     0.610340000000    -0.0973271  
C139     C      0.272280000000     0.086130000000     0.599280000000     0.0192316  
C140     C      0.256590000000     0.066640000000     0.582040000000    -0.064071   
C141     C      0.244580000000     0.001060000000     0.786530000000    -0.0632003  
C142     C      0.266770000000     0.023970000000     0.793890000000     0.0202708  
C143     C      0.275330000000     0.028490000000     0.821030000000    -0.0642835  
C144     C      0.260910000000     0.010980000000     0.840580000000     0.0176685  
C145     C      0.237150000000     0.988590000000     0.833520000000    -0.0958572  
C146     C      0.229630000000     0.983600000000     0.806200000000     0.0167299  
C147     C      0.279590000000     0.044030000000     0.773770000000     0.0210959  
C148     C      0.302330000000     0.036650000000     0.751100000000    -0.0645305  
C149     C      0.317330000000     0.056280000000     0.733620000000     0.0178141  
C150     C      0.309350000000     0.083590000000     0.738360000000    -0.0968461  
C151     C      0.285020000000     0.090660000000     0.760490000000     0.0180052  
C152     C      0.270530000000     0.071140000000     0.778010000000    -0.0650791  
C153     C      0.274940000000     0.319910000000     0.526940000000    -0.0662305  
C154     C      0.266740000000     0.324270000000     0.554140000000     0.0210498  
C155     C      0.244100000000     0.346900000000     0.561750000000    -0.0652264  
C156     C      0.228460000000     0.364300000000     0.542260000000     0.0182149  
C157     C      0.235700000000     0.359470000000     0.514880000000    -0.0991938  
C158     C      0.259780000000     0.337300000000     0.507570000000     0.0192331  
C159     C      0.280420000000     0.304310000000     0.574080000000     0.0209951  
C160     C      0.272370000000     0.277100000000     0.569620000000    -0.0660825  
C161     C      0.287480000000     0.257710000000     0.587020000000     0.0193911  
C162     C      0.311360000000     0.265010000000     0.609270000000    -0.0986233  
C163     C      0.318470000000     0.292390000000     0.614180000000     0.0181413  
C164     C      0.302880000000     0.311900000000     0.596790000000    -0.0651301  
C165     C      0.529000000000     0.031790000000     0.528190000000    -0.0662065  
C166     C      0.534140000000     0.025670000000     0.555390000000     0.0210591  
C167     C      0.553130000000     0.001500000000     0.562560000000    -0.0643178  
C168     C      0.568040000000     0.984200000000     0.542750000000     0.0176453  
C169     C      0.563620000000     0.990620000000     0.515440000000    -0.0987299  
C170     C      0.543360000000     0.014460000000     0.508470000000     0.0203406  
C171     C      0.520730000000     0.045180000000     0.575880000000     0.0208373  
C172     C      0.532050000000     0.072140000000     0.573340000000    -0.0652533  
C173     C      0.516770000000     0.091310000000     0.590930000000     0.0188486  
C174     C      0.489410000000     0.084070000000     0.611430000000    -0.0970814  
C175     C      0.479280000000     0.056840000000     0.614610000000     0.0177464  
C176     C      0.495020000000     0.037530000000     0.597050000000    -0.0644756  
C177     C      0.517770000000     0.278240000000     0.781730000000    -0.0663293  
C178     C      0.512610000000     0.305450000000     0.775620000000     0.0213784  
C179     C      0.493590000000     0.312630000000     0.751480000000    -0.0652036  
C180     C      0.478680000000     0.292820000000     0.734170000000     0.0182315  
C181     C      0.483130000000     0.265510000000     0.740570000000    -0.0985222  
C182     C      0.503420000000     0.258530000000     0.764390000000     0.0201074  
C183     C      0.526020000000     0.325930000000     0.795140000000     0.0206759  
C184     C      0.514730000000     0.323380000000     0.822090000000    -0.0650906  
C185     C      0.530010000000     0.340960000000     0.841270000000     0.0187598  
C186     C      0.557340000000     0.361480000000     0.834030000000    -0.0970213  
C187     C      0.567430000000     0.364680000000     0.806790000000     0.0176843  
C188     C      0.551700000000     0.347120000000     0.787490000000    -0.0643858  
C189     C      0.569610000000     0.012770000000     0.791050000000    -0.0640638  
C190     C      0.530850000000     0.024400000000     0.794080000000     0.0213304  
C191     C      0.507210000000     0.017910000000     0.816630000000    -0.0647228  
C192     C      0.522610000000     0.000720000000     0.836270000000     0.0202923  
C193     C      0.561580000000     0.989270000000     0.833410000000    -0.0980384  
C194     C      0.584670000000     0.995140000000     0.810390000000     0.01842    
C195     C      0.515710000000     0.044120000000     0.774360000000     0.0213131  
C196     C      0.539380000000     0.066650000000     0.767860000000    -0.0644431  
C197     C      0.524000000000     0.086300000000     0.750670000000     0.019276   
C198     C      0.485020000000     0.083450000000     0.739230000000    -0.0974558  
C199     C      0.461900000000     0.060450000000     0.745120000000     0.0187017  
C200     C      0.476950000000     0.041100000000     0.762750000000    -0.0643815  
C201     C      0.320750000000     0.308280000000     0.763020000000    -0.0648115  
C202     C      0.281980000000     0.305280000000     0.774650000000     0.0217262  
C203     C      0.258560000000     0.282540000000     0.768470000000    -0.0650345  
C204     C      0.274140000000     0.262740000000     0.751530000000     0.0192888  
C205     C      0.313060000000     0.265620000000     0.740010000000    -0.0984554  
C206     C      0.335980000000     0.288770000000     0.745620000000     0.0203785  
C207     C      0.266580000000     0.325220000000     0.794100000000     0.0209889  
C208     C      0.290180000000     0.332150000000     0.816520000000    -0.063893   
C209     C      0.274490000000     0.349400000000     0.836020000000     0.0189523  
C210     C      0.235250000000     0.360470000000     0.833130000000    -0.0966926  
C211     C      0.212230000000     0.354210000000     0.810200000000     0.01813    
C212     C      0.227600000000     0.336510000000     0.791000000000    -0.0641896  
C213     C      0.476680000000     0.308250000000     0.586110000000    -0.0647936  
C214     C      0.515640000000     0.305160000000     0.574760000000     0.0214277  
C215     C      0.538990000000     0.282510000000     0.581360000000    -0.0648246  
C216     C      0.523150000000     0.262870000000     0.598370000000     0.0192965  
C217     C      0.483990000000     0.265800000000     0.609550000000    -0.0986204  
C218     C      0.461160000000     0.288890000000     0.603590000000     0.0201753  
C219     C      0.531250000000     0.324810000000     0.555100000000     0.0215395  
C220     C      0.507890000000     0.331390000000     0.532460000000    -0.0649654  
C221     C      0.523730000000     0.348390000000     0.512810000000     0.0193339  
C222     C      0.562880000000     0.359580000000     0.515720000000    -0.0985891  
C223     C      0.585720000000     0.353630000000     0.538820000000     0.0201615  
C224     C      0.570210000000     0.336160000000     0.558190000000    -0.0648691  
C225     C      0.580700000000     0.876210000000     0.994200000000     0.331323   
C226     C      0.217300000000     0.877020000000     0.354670000000     0.333424   
C227     C      0.216950000000     0.876400000000     0.993790000000     0.332007   
C228     C      0.576920000000     0.878020000000     0.355150000000     0.334616   
C229     C      0.579240000000     0.472600000000     0.354940000000     0.333826   
C230     C      0.216150000000     0.473380000000     0.993980000000     0.332356   
C231     C      0.218480000000     0.471800000000     0.354800000000     0.332924   
C232     C      0.581360000000     0.473440000000     0.994180000000     0.331765   
C233     C      0.466160000000     0.744280000000     0.126170000000     0.33479    
C234     C      0.329470000000     0.604770000000     0.126890000000     0.333581   
C235     C      0.330020000000     0.743910000000     0.126240000000     0.335576   
C236     C      0.469840000000     0.605200000000     0.127970000000     0.334413   
C237     C      0.467390000000     0.604990000000     0.222550000000     0.333746   
C238     C      0.330580000000     0.744080000000     0.223270000000     0.334993   
C239     C      0.328120000000     0.604870000000     0.221620000000     0.33387    
C240     C      0.465390000000     0.744250000000     0.223390000000     0.335323   
C241     C      0.288160000000     0.518610000000     0.032400000000    -0.065993   
C242     C      0.264780000000     0.524770000000     0.055160000000     0.0220223  
C243     C      0.226030000000     0.513110000000     0.058170000000    -0.0648407  
C244     C      0.210790000000     0.495710000000     0.038670000000     0.0202204  
C245     C      0.233680000000     0.490120000000     0.015500000000    -0.0977325  
C246     C      0.272580000000     0.501670000000     0.012610000000     0.0216142  
C247     C      0.280180000000     0.544210000000     0.075080000000     0.0209288  
C248     C      0.319170000000     0.541110000000     0.086370000000    -0.0642631  
C249     C      0.334540000000     0.560300000000     0.104070000000     0.0183843  
C250     C      0.311520000000     0.583240000000     0.110340000000    -0.0973186  
C251     C      0.272280000000     0.586130000000     0.099280000000     0.0192589  
C252     C      0.256590000000     0.566640000000     0.082040000000    -0.064047   
C253     C      0.244580000000     0.501060000000     0.286530000000    -0.0641318  
C254     C      0.266770000000     0.523970000000     0.293890000000     0.0205127  
C255     C      0.275330000000     0.528490000000     0.321030000000    -0.0643335  
C256     C      0.260910000000     0.510980000000     0.340580000000     0.0173548  
C257     C      0.237150000000     0.488590000000     0.333520000000    -0.0956378  
C258     C      0.229630000000     0.483600000000     0.306200000000     0.0172937  
C259     C      0.279590000000     0.544030000000     0.273770000000     0.0209795  
C260     C      0.302330000000     0.536640000000     0.251100000000    -0.064563   
C261     C      0.317330000000     0.556280000000     0.233620000000     0.0177782  
C262     C      0.309350000000     0.583600000000     0.238360000000    -0.0969244  
C263     C      0.285020000000     0.590660000000     0.260490000000     0.018043   
C264     C      0.270530000000     0.571140000000     0.278010000000    -0.0650683  
C265     C      0.274940000000     0.819910000000     0.026940000000    -0.0666625  
C266     C      0.266740000000     0.824270000000     0.054140000000     0.0211995  
C267     C      0.244100000000     0.846900000000     0.061750000000    -0.0650235  
C268     C      0.228460000000     0.864300000000     0.042260000000     0.0176437  
C269     C      0.235700000000     0.859470000000     0.014880000000    -0.0973834  
C270     C      0.259780000000     0.837300000000     0.007570000000     0.0209484  
C271     C      0.280420000000     0.804310000000     0.074080000000     0.0210009  
C272     C      0.272370000000     0.777100000000     0.069620000000    -0.0660406  
C273     C      0.287480000000     0.757710000000     0.087020000000     0.0194325  
C274     C      0.311360000000     0.765010000000     0.109270000000    -0.0986099  
C275     C      0.318470000000     0.792390000000     0.114180000000     0.0181474  
C276     C      0.302880000000     0.811900000000     0.096790000000    -0.0651067  
C277     C      0.529000000000     0.531790000000     0.028190000000    -0.066727   
C278     C      0.534140000000     0.525670000000     0.055390000000     0.0214866  
C279     C      0.553130000000     0.501500000000     0.062560000000    -0.0650566  
C280     C      0.568040000000     0.484200000000     0.042750000000     0.0176637  
C281     C      0.563620000000     0.490620000000     0.015440000000    -0.0967271  
C282     C      0.543360000000     0.514460000000     0.008470000000     0.0217714  
C283     C      0.520730000000     0.545180000000     0.075880000000     0.0206466  
C284     C      0.532050000000     0.572140000000     0.073340000000    -0.0650871  
C285     C      0.516770000000     0.591320000000     0.090930000000     0.0187366  
C286     C      0.489410000000     0.584070000000     0.111430000000    -0.0969486  
C287     C      0.479280000000     0.556840000000     0.114610000000     0.0176587  
C288     C      0.495020000000     0.537530000000     0.097050000000    -0.0643729  
C289     C      0.517770000000     0.778240000000     0.281720000000    -0.0662583  
C290     C      0.512610000000     0.805450000000     0.275620000000     0.0213267  
C291     C      0.493590000000     0.812630000000     0.251470000000    -0.0652273  
C292     C      0.478680000000     0.792820000000     0.234170000000     0.0182758  
C293     C      0.483130000000     0.765510000000     0.240570000000    -0.0985445  
C294     C      0.503420000000     0.758530000000     0.264390000000     0.0201065  
C295     C      0.526020000000     0.825940000000     0.295140000000     0.0207289  
C296     C      0.514730000000     0.823380000000     0.322090000000    -0.0651184  
C297     C      0.530010000000     0.840960000000     0.341270000000     0.0187961  
C298     C      0.557340000000     0.861480000000     0.334030000000    -0.0970649  
C299     C      0.567430000000     0.864680000000     0.306800000000     0.0177393  
C300     C      0.551700000000     0.847120000000     0.287490000000    -0.0644533  
C301     C      0.569610000000     0.512770000000     0.291050000000    -0.0643816  
C302     C      0.530850000000     0.524400000000     0.294080000000     0.0212563  
C303     C      0.507210000000     0.517910000000     0.316630000000    -0.0644434  
C304     C      0.522610000000     0.500720000000     0.336270000000     0.0193644  
C305     C      0.561580000000     0.489270000000     0.333410000000    -0.0975134  
C306     C      0.584670000000     0.495140000000     0.310390000000     0.018673   
C307     C      0.515710000000     0.544120000000     0.274360000000     0.0213394  
C308     C      0.539380000000     0.566650000000     0.267860000000    -0.0644761  
C309     C      0.524000000000     0.586300000000     0.250670000000     0.0193022  
C310     C      0.485020000000     0.583450000000     0.239230000000    -0.0974777  
C311     C      0.461900000000     0.560450000000     0.245120000000     0.018687   
C312     C      0.476950000000     0.541100000000     0.262760000000    -0.0644272  
C313     C      0.320750000000     0.808280000000     0.263020000000    -0.0648227  
C314     C      0.281980000000     0.805280000000     0.274650000000     0.0217396  
C315     C      0.258560000000     0.782540000000     0.268470000000    -0.0650375  
C316     C      0.274140000000     0.762740000000     0.251530000000     0.0192941  
C317     C      0.313060000000     0.765620000000     0.240010000000    -0.0984602  
C318     C      0.335980000000     0.788770000000     0.245620000000     0.0203778  
C319     C      0.266580000000     0.825210000000     0.294100000000     0.0209438  
C320     C      0.290180000000     0.832150000000     0.316530000000    -0.0638954  
C321     C      0.274490000000     0.849400000000     0.336020000000     0.0190222  
C322     C      0.235250000000     0.860470000000     0.333140000000    -0.09676    
C323     C      0.212230000000     0.854210000000     0.310190000000     0.0180993  
C324     C      0.227600000000     0.836510000000     0.291000000000    -0.0641658  
C325     C      0.476680000000     0.808250000000     0.086110000000    -0.064789   
C326     C      0.515640000000     0.805150000000     0.074760000000     0.0214831  
C327     C      0.538990000000     0.782510000000     0.081360000000    -0.0648113  
C328     C      0.523150000000     0.762870000000     0.098370000000     0.0193426  
C329     C      0.483990000000     0.765800000000     0.109550000000    -0.0986126  
C330     C      0.461160000000     0.788890000000     0.103590000000     0.0202101  
C331     C      0.531250000000     0.824810000000     0.055100000000     0.0216537  
C332     C      0.507890000000     0.831390000000     0.032460000000    -0.0653806  
C333     C      0.523730000000     0.848390000000     0.012810000000     0.0210317  
C334     C      0.562880000000     0.859580000000     0.015720000000    -0.0968243  
C335     C      0.585720000000     0.853630000000     0.038820000000     0.019618   
C336     C      0.570210000000     0.836160000000     0.058180000000    -0.064603   
C337     C      0.580700000000     0.876210000000     0.494200000000     0.33478    
C338     C      0.217300000000     0.877020000000     0.854670000000     0.333359   
C339     C      0.216950000000     0.876400000000     0.493790000000     0.335678   
C340     C      0.576920000000     0.878020000000     0.855150000000     0.334605   
C341     C      0.579240000000     0.472600000000     0.854940000000     0.333825   
C342     C      0.216150000000     0.473380000000     0.493980000000     0.336043   
C343     C      0.218480000000     0.471800000000     0.854800000000     0.332923   
C344     C      0.581360000000     0.473440000000     0.494180000000     0.335432   
C345     C      0.466160000000     0.744280000000     0.626170000000     0.334785   
C346     C      0.329470000000     0.604770000000     0.626890000000     0.333576   
C347     C      0.330020000000     0.743910000000     0.626240000000     0.335571   
C348     C      0.469840000000     0.605200000000     0.627960000000     0.334343   
C349     C      0.467390000000     0.604990000000     0.722550000000     0.333752   
C350     C      0.330580000000     0.744080000000     0.723270000000     0.334996   
C351     C      0.328120000000     0.604870000000     0.721620000000     0.333876   
C352     C      0.465390000000     0.744250000000     0.723390000000     0.335318   
C353     C      0.288160000000     0.518610000000     0.532400000000    -0.0656292  
C354     C      0.264780000000     0.524770000000     0.555150000000     0.0219473  
C355     C      0.226030000000     0.513110000000     0.558180000000    -0.0651466  
C356     C      0.210790000000     0.495710000000     0.538670000000     0.0208066  
C357     C      0.233680000000     0.490120000000     0.515500000000    -0.0995917  
C358     C      0.272580000000     0.501670000000     0.512610000000     0.019969   
C359     C      0.280180000000     0.544210000000     0.575080000000     0.0208909  
C360     C      0.319170000000     0.541110000000     0.586370000000    -0.0642824  
C361     C      0.334540000000     0.560300000000     0.604070000000     0.0183532  
C362     C      0.311520000000     0.583240000000     0.610340000000    -0.0973325  
C363     C      0.272280000000     0.586130000000     0.599280000000     0.0192247  
C364     C      0.256590000000     0.566640000000     0.582040000000    -0.0640815  
C365     C      0.244580000000     0.501060000000     0.786530000000    -0.064127   
C366     C      0.266770000000     0.523970000000     0.793890000000     0.0205115  
C367     C      0.275330000000     0.528490000000     0.821030000000    -0.0643446  
C368     C      0.260910000000     0.510980000000     0.840580000000     0.0173457  
C369     C      0.237150000000     0.488590000000     0.833520000000    -0.0956428  
C370     C      0.229630000000     0.483600000000     0.806200000000     0.0173003  
C371     C      0.279590000000     0.544030000000     0.773770000000     0.0209831  
C372     C      0.302330000000     0.536640000000     0.751100000000    -0.0645713  
C373     C      0.317330000000     0.556280000000     0.733620000000     0.0177932  
C374     C      0.309350000000     0.583600000000     0.738360000000    -0.0969235  
C375     C      0.285020000000     0.590660000000     0.760490000000     0.0180412  
C376     C      0.270530000000     0.571140000000     0.778010000000    -0.0650703  
C377     C      0.274940000000     0.819910000000     0.526940000000    -0.0662322  
C378     C      0.266740000000     0.824270000000     0.554140000000     0.0210484  
C379     C      0.244100000000     0.846900000000     0.561750000000    -0.0652324  
C380     C      0.228460000000     0.864300000000     0.542260000000     0.01821    
C381     C      0.235700000000     0.859470000000     0.514880000000    -0.0991983  
C382     C      0.259780000000     0.837300000000     0.507570000000     0.0192324  
C383     C      0.280420000000     0.804310000000     0.574080000000     0.0209928  
C384     C      0.272370000000     0.777100000000     0.569620000000    -0.0660808  
C385     C      0.287480000000     0.757710000000     0.587020000000     0.0193912  
C386     C      0.311360000000     0.765010000000     0.609270000000    -0.0986224  
C387     C      0.318470000000     0.792390000000     0.614180000000     0.0181388  
C388     C      0.302880000000     0.811900000000     0.596790000000    -0.0651308  
C389     C      0.529000000000     0.531790000000     0.528190000000    -0.0662803  
C390     C      0.534140000000     0.525670000000     0.555390000000     0.0213274  
C391     C      0.553130000000     0.501500000000     0.562560000000    -0.0652577  
C392     C      0.568040000000     0.484200000000     0.542750000000     0.018224   
C393     C      0.563620000000     0.490620000000     0.515440000000    -0.0985248  
C394     C      0.543360000000     0.514460000000     0.508470000000     0.0200283  
C395     C      0.520730000000     0.545180000000     0.575880000000     0.0206513  
C396     C      0.532050000000     0.572140000000     0.573340000000    -0.0651359  
C397     C      0.516770000000     0.591320000000     0.590930000000     0.0187177  
C398     C      0.489410000000     0.584070000000     0.611430000000    -0.0970124  
C399     C      0.479280000000     0.556840000000     0.614610000000     0.0176766  
C400     C      0.495020000000     0.537530000000     0.597050000000    -0.0644128  
C401     C      0.517770000000     0.778240000000     0.781730000000    -0.0663219  
C402     C      0.512610000000     0.805450000000     0.775620000000     0.0213648  
C403     C      0.493590000000     0.812630000000     0.751480000000    -0.0651997  
C404     C      0.478680000000     0.792820000000     0.734170000000     0.0182265  
C405     C      0.483130000000     0.765510000000     0.740570000000    -0.098519   
C406     C      0.503420000000     0.758530000000     0.764390000000     0.0201051  
C407     C      0.526020000000     0.825940000000     0.795140000000     0.0207095  
C408     C      0.514730000000     0.823380000000     0.822090000000    -0.065113   
C409     C      0.530010000000     0.840960000000     0.841270000000     0.0187684  
C410     C      0.557340000000     0.861480000000     0.834030000000    -0.0970354  
C411     C      0.567430000000     0.864680000000     0.806790000000     0.0176922  
C412     C      0.551700000000     0.847120000000     0.787490000000    -0.0644206  
C413     C      0.569610000000     0.512770000000     0.791050000000    -0.0643837  
C414     C      0.530850000000     0.524400000000     0.794080000000     0.0212638  
C415     C      0.507210000000     0.517910000000     0.816630000000    -0.06446    
C416     C      0.522610000000     0.500720000000     0.836270000000     0.019359   
C417     C      0.561580000000     0.489270000000     0.833410000000    -0.0975209  
C418     C      0.584670000000     0.495140000000     0.810390000000     0.0186779  
C419     C      0.515710000000     0.544120000000     0.774360000000     0.0213145  
C420     C      0.539380000000     0.566650000000     0.767860000000    -0.0644675  
C421     C      0.524000000000     0.586300000000     0.750670000000     0.0192976  
C422     C      0.485020000000     0.583450000000     0.739230000000    -0.0974761  
C423     C      0.461900000000     0.560450000000     0.745120000000     0.018698   
C424     C      0.476950000000     0.541100000000     0.762750000000    -0.0644046  
C425     C      0.320750000000     0.808280000000     0.763020000000    -0.0648175  
C426     C      0.281980000000     0.805280000000     0.774650000000     0.0217348  
C427     C      0.258560000000     0.782540000000     0.768470000000    -0.0650391  
C428     C      0.274140000000     0.762740000000     0.751530000000     0.0192912  
C429     C      0.313060000000     0.765620000000     0.740010000000    -0.0984572  
C430     C      0.335980000000     0.788770000000     0.745620000000     0.0203787  
C431     C      0.266580000000     0.825210000000     0.794100000000     0.0209515  
C432     C      0.290180000000     0.832150000000     0.816520000000    -0.0638732  
C433     C      0.274490000000     0.849400000000     0.836020000000     0.0189378  
C434     C      0.235250000000     0.860470000000     0.833130000000    -0.0966884  
C435     C      0.212230000000     0.854210000000     0.810200000000     0.0181146  
C436     C      0.227600000000     0.836510000000     0.791000000000    -0.064169   
C437     C      0.476680000000     0.808250000000     0.586110000000    -0.0648164  
C438     C      0.515640000000     0.805150000000     0.574760000000     0.0214631  
C439     C      0.538990000000     0.782510000000     0.581360000000    -0.0648549  
C440     C      0.523150000000     0.762870000000     0.598370000000     0.0193106  
C441     C      0.483990000000     0.765800000000     0.609550000000    -0.0986295  
C442     C      0.461160000000     0.788890000000     0.603590000000     0.0201834  
C443     C      0.531250000000     0.824810000000     0.555100000000     0.0215245  
C444     C      0.507890000000     0.831390000000     0.532460000000    -0.0649634  
C445     C      0.523730000000     0.848390000000     0.512810000000     0.0193278  
C446     C      0.562880000000     0.859580000000     0.515720000000    -0.0985914  
C447     C      0.585720000000     0.853630000000     0.538820000000     0.020155   
C448     C      0.570210000000     0.836160000000     0.558190000000    -0.0648678  
C449     C      0.080700000000     0.376210000000     0.994200000000     0.331288   
C450     C      0.717300000000     0.377020000000     0.354670000000     0.333426   
C451     C      0.716950000000     0.376400000000     0.993790000000     0.332024   
C452     C      0.076920000000     0.378020000000     0.355150000000     0.334575   
C453     C      0.079240000000     0.972600000000     0.354940000000     0.333795   
C454     C      0.716150000000     0.973380000000     0.993980000000     0.332493   
C455     C      0.718480000000     0.971800000000     0.354800000000     0.332941   
C456     C      0.081350000000     0.973440000000     0.994180000000     0.331721   
C457     C      0.966160000000     0.244280000000     0.126170000000     0.334968   
C458     C      0.829470000000     0.104770000000     0.126890000000     0.333467   
C459     C      0.830020000000     0.243910000000     0.126240000000     0.335573   
C460     C      0.969840000000     0.105200000000     0.127970000000     0.334621   
C461     C      0.967390000000     0.104990000000     0.222550000000     0.333917   
C462     C      0.830580000000     0.244080000000     0.223270000000     0.334976   
C463     C      0.828120000000     0.104870000000     0.221620000000     0.333868   
C464     C      0.965390000000     0.244250000000     0.223390000000     0.335489   
C465     C      0.788160000000     0.018610000000     0.032400000000    -0.0662485  
C466     C      0.764780000000     0.024770000000     0.055160000000     0.0220641  
C467     C      0.726030000000     0.013110000000     0.058170000000    -0.06449    
C468     C      0.710780000000     0.995710000000     0.038670000000     0.0198987  
C469     C      0.733680000000     0.990120000000     0.015500000000    -0.0982254  
C470     C      0.772580000000     0.001670000000     0.012610000000     0.0225136  
C471     C      0.780180000000     0.044210000000     0.075080000000     0.0209245  
C472     C      0.819170000000     0.041110000000     0.086370000000    -0.0642451  
C473     C      0.834540000000     0.060300000000     0.104070000000     0.0183638  
C474     C      0.811520000000     0.083240000000     0.110340000000    -0.0972768  
C475     C      0.772280000000     0.086130000000     0.099280000000     0.0192399  
C476     C      0.756590000000     0.066640000000     0.082040000000    -0.0640345  
C477     C      0.744580000000     0.001060000000     0.286530000000    -0.0632132  
C478     C      0.766770000000     0.023970000000     0.293890000000     0.0202625  
C479     C      0.775330000000     0.028490000000     0.321030000000    -0.0642804  
C480     C      0.760910000000     0.010980000000     0.340580000000     0.0176671  
C481     C      0.737150000000     0.988590000000     0.333520000000    -0.0958591  
C482     C      0.729630000000     0.983600000000     0.306200000000     0.0167188  
C483     C      0.779600000000     0.044030000000     0.273770000000     0.0210912  
C484     C      0.802330000000     0.036650000000     0.251100000000    -0.0645406  
C485     C      0.817330000000     0.056280000000     0.233620000000     0.0178081  
C486     C      0.809350000000     0.083590000000     0.238360000000    -0.0968814  
C487     C      0.785020000000     0.090660000000     0.260490000000     0.0180082  
C488     C      0.770540000000     0.071140000000     0.278010000000    -0.0650685  
C489     C      0.774940000000     0.319910000000     0.026940000000    -0.0666684  
C490     C      0.766740000000     0.324270000000     0.054140000000     0.021189   
C491     C      0.744090000000     0.346900000000     0.061750000000    -0.065035   
C492     C      0.728460000000     0.364300000000     0.042260000000     0.0176593  
C493     C      0.735700000000     0.359470000000     0.014880000000    -0.0973956  
C494     C      0.759780000000     0.337300000000     0.007570000000     0.0209424  
C495     C      0.780420000000     0.304310000000     0.074080000000     0.0209974  
C496     C      0.772370000000     0.277100000000     0.069620000000    -0.0660477  
C497     C      0.787480000000     0.257710000000     0.087020000000     0.0194252  
C498     C      0.811360000000     0.265010000000     0.109270000000    -0.0986154  
C499     C      0.818470000000     0.292390000000     0.114180000000     0.018145   
C500     C      0.802880000000     0.311900000000     0.096790000000    -0.0651134  
C501     C      0.029000000000     0.031790000000     0.028190000000    -0.0665227  
C502     C      0.034140000000     0.025670000000     0.055390000000     0.0210333  
C503     C      0.053130000000     0.001500000000     0.062560000000    -0.0639852  
C504     C      0.068040000000     0.984200000000     0.042750000000     0.0170596  
C505     C      0.063620000000     0.990620000000     0.015440000000    -0.0968908  
C506     C      0.043360000000     0.014460000000     0.008470000000     0.0220495  
C507     C      0.020730000000     0.045180000000     0.075880000000     0.0215177  
C508     C      0.032050000000     0.072140000000     0.073340000000    -0.0656202  
C509     C      0.016770000000     0.091310000000     0.090930000000     0.0196124  
C510     C      0.989410000000     0.084070000000     0.111430000000    -0.0977277  
C511     C      0.979290000000     0.056840000000     0.114610000000     0.0181706  
C512     C      0.995010000000     0.037530000000     0.097050000000    -0.0652138  
C513     C      0.017770000000     0.278240000000     0.281720000000    -0.0666956  
C514     C      0.012610000000     0.305450000000     0.275620000000     0.0221283  
C515     C      0.993590000000     0.312630000000     0.251470000000    -0.0660106  
C516     C      0.978680000000     0.292820000000     0.234170000000     0.0186869  
C517     C      0.983130000000     0.265510000000     0.240570000000    -0.0992355  
C518     C      0.003420000000     0.258530000000     0.264390000000     0.0208623  
C519     C      0.026020000000     0.325930000000     0.295140000000     0.0203039  
C520     C      0.014730000000     0.323380000000     0.322090000000    -0.0644344  
C521     C      0.030010000000     0.340960000000     0.341270000000     0.0185331  
C522     C      0.057340000000     0.361480000000     0.334030000000    -0.0968879  
C523     C      0.067430000000     0.364680000000     0.306800000000     0.0176115  
C524     C      0.051700000000     0.347120000000     0.287490000000    -0.0641823  
C525     C      0.069610000000     0.012770000000     0.291050000000    -0.0638106  
C526     C      0.030850000000     0.024400000000     0.294080000000     0.0209011  
C527     C      0.007210000000     0.017910000000     0.316630000000    -0.0639844  
C528     C      0.022610000000     0.000720000000     0.336270000000     0.0200017  
C529     C      0.061580000000     0.989270000000     0.333410000000    -0.0978134  
C530     C      0.084670000000     0.995140000000     0.310390000000     0.0182568  
C531     C      0.015710000000     0.044120000000     0.274360000000     0.0221394  
C532     C      0.039380000000     0.066650000000     0.267860000000    -0.0649048  
C533     C      0.024000000000     0.086300000000     0.250670000000     0.0200385  
C534     C      0.985020000000     0.083450000000     0.239230000000    -0.0981564  
C535     C      0.961900000000     0.060450000000     0.245120000000     0.0191157  
C536     C      0.976950000000     0.041100000000     0.262760000000    -0.0651789  
C537     C      0.820750000000     0.308280000000     0.263020000000    -0.064784   
C538     C      0.781980000000     0.305280000000     0.274650000000     0.0217047  
C539     C      0.758560000000     0.282540000000     0.268470000000    -0.0650227  
C540     C      0.774140000000     0.262740000000     0.251530000000     0.0192662  
C541     C      0.813060000000     0.265620000000     0.240010000000    -0.0984263  
C542     C      0.835990000000     0.288770000000     0.245620000000     0.0203022  
C543     C      0.766580000000     0.325220000000     0.294100000000     0.0209806  
C544     C      0.790180000000     0.332150000000     0.316530000000    -0.063927   
C545     C      0.774490000000     0.349400000000     0.336020000000     0.0190282  
C546     C      0.735250000000     0.360470000000     0.333140000000    -0.0967709  
C547     C      0.712230000000     0.354210000000     0.310190000000     0.0181107  
C548     C      0.727600000000     0.336510000000     0.291000000000    -0.0641934  
C549     C      0.976680000000     0.308250000000     0.086110000000    -0.0655382  
C550     C      0.015640000000     0.305160000000     0.074760000000     0.0222441  
C551     C      0.038990000000     0.282510000000     0.081360000000    -0.0652331  
C552     C      0.023150000000     0.262870000000     0.098370000000     0.0200858  
C553     C      0.983990000000     0.265800000000     0.109550000000    -0.0993063  
C554     C      0.961160000000     0.288890000000     0.103590000000     0.0206271  
C555     C      0.031250000000     0.324810000000     0.055100000000     0.0212558  
C556     C      0.007890000000     0.331390000000     0.032460000000    -0.0646713  
C557     C      0.023730000000     0.348390000000     0.012810000000     0.0207643  
C558     C      0.062880000000     0.359580000000     0.015720000000    -0.0966512  
C559     C      0.085720000000     0.353630000000     0.038820000000     0.0194881  
C560     C      0.070210000000     0.336160000000     0.058180000000    -0.0643644  
C561     C      0.080700000000     0.376210000000     0.494200000000     0.334744   
C562     C      0.717300000000     0.377020000000     0.854670000000     0.333362   
C563     C      0.716950000000     0.376400000000     0.493790000000     0.335694   
C564     C      0.076920000000     0.378020000000     0.855150000000     0.334564   
C565     C      0.079240000000     0.972600000000     0.854940000000     0.333795   
C566     C      0.716150000000     0.973380000000     0.493980000000     0.33618    
C567     C      0.718480000000     0.971800000000     0.854800000000     0.33294    
C568     C      0.081350000000     0.973440000000     0.494180000000     0.335388   
C569     C      0.966160000000     0.244280000000     0.626170000000     0.334963   
C570     C      0.829470000000     0.104770000000     0.626890000000     0.333462   
C571     C      0.830020000000     0.243910000000     0.626240000000     0.335567   
C572     C      0.969840000000     0.105200000000     0.627960000000     0.334551   
C573     C      0.967390000000     0.104990000000     0.722550000000     0.333922   
C574     C      0.830580000000     0.244080000000     0.723270000000     0.334979   
C575     C      0.828120000000     0.104870000000     0.721620000000     0.333873   
C576     C      0.965390000000     0.244250000000     0.723390000000     0.335484   
C577     C      0.788160000000     0.018610000000     0.532400000000    -0.0658869  
C578     C      0.764780000000     0.024770000000     0.555150000000     0.0219903  
C579     C      0.726030000000     0.013110000000     0.558180000000    -0.0647944  
C580     C      0.710780000000     0.995710000000     0.538670000000     0.0204841  
C581     C      0.733680000000     0.990120000000     0.515500000000    -0.100088   
C582     C      0.772580000000     0.001670000000     0.512610000000     0.0208761  
C583     C      0.780180000000     0.044210000000     0.575080000000     0.0208865  
C584     C      0.819170000000     0.041110000000     0.586370000000    -0.0642643  
C585     C      0.834540000000     0.060300000000     0.604070000000     0.0183328  
C586     C      0.811520000000     0.083240000000     0.610340000000    -0.0972906  
C587     C      0.772280000000     0.086130000000     0.599280000000     0.0192057  
C588     C      0.756590000000     0.066640000000     0.582040000000    -0.0640688  
C589     C      0.744580000000     0.001060000000     0.786530000000    -0.0632053  
C590     C      0.766770000000     0.023970000000     0.793890000000     0.0202605  
C591     C      0.775330000000     0.028490000000     0.821030000000    -0.0642912  
C592     C      0.760910000000     0.010980000000     0.840580000000     0.0176591  
C593     C      0.737150000000     0.988590000000     0.833520000000    -0.0958647  
C594     C      0.729630000000     0.983600000000     0.806200000000     0.0167236  
C595     C      0.779600000000     0.044030000000     0.773770000000     0.0210953  
C596     C      0.802330000000     0.036650000000     0.751100000000    -0.064549   
C597     C      0.817330000000     0.056280000000     0.733620000000     0.0178234  
C598     C      0.809350000000     0.083590000000     0.738360000000    -0.0968805  
C599     C      0.785020000000     0.090660000000     0.760490000000     0.0180065  
C600     C      0.770540000000     0.071140000000     0.778010000000    -0.0650707  
C601     C      0.774940000000     0.319910000000     0.526940000000    -0.0662385  
C602     C      0.766740000000     0.324270000000     0.554140000000     0.0210383  
C603     C      0.744090000000     0.346900000000     0.561750000000    -0.065244   
C604     C      0.728460000000     0.364300000000     0.542260000000     0.0182257  
C605     C      0.735700000000     0.359470000000     0.514880000000    -0.0992102  
C606     C      0.759780000000     0.337300000000     0.507570000000     0.0192279  
C607     C      0.780420000000     0.304310000000     0.574080000000     0.0209893  
C608     C      0.772370000000     0.277100000000     0.569620000000    -0.0660879  
C609     C      0.787480000000     0.257710000000     0.587020000000     0.019384   
C610     C      0.811360000000     0.265010000000     0.609270000000    -0.0986279  
C611     C      0.818470000000     0.292390000000     0.614180000000     0.0181364  
C612     C      0.802880000000     0.311900000000     0.596790000000    -0.0651374  
C613     C      0.029000000000     0.031790000000     0.528190000000    -0.0660785  
C614     C      0.034140000000     0.025670000000     0.555390000000     0.0208745  
C615     C      0.053130000000     0.001500000000     0.562560000000    -0.0641824  
C616     C      0.068040000000     0.984200000000     0.542750000000     0.0176183  
C617     C      0.063620000000     0.990620000000     0.515440000000    -0.0986918  
C618     C      0.043360000000     0.014460000000     0.508470000000     0.0203156  
C619     C      0.020730000000     0.045180000000     0.575880000000     0.0215224  
C620     C      0.032050000000     0.072140000000     0.573340000000    -0.0656687  
C621     C      0.016770000000     0.091310000000     0.590930000000     0.0195933  
C622     C      0.989410000000     0.084070000000     0.611430000000    -0.0977911  
C623     C      0.979290000000     0.056840000000     0.614610000000     0.0181885  
C624     C      0.995010000000     0.037530000000     0.597050000000    -0.0652531  
C625     C      0.017770000000     0.278240000000     0.781730000000    -0.066759   
C626     C      0.012610000000     0.305450000000     0.775620000000     0.0221661  
C627     C      0.993590000000     0.312630000000     0.751480000000    -0.0659826  
C628     C      0.978680000000     0.292820000000     0.734170000000     0.0186373  
C629     C      0.983130000000     0.265510000000     0.740570000000    -0.0992094  
C630     C      0.003420000000     0.258530000000     0.764390000000     0.0208602  
C631     C      0.026020000000     0.325930000000     0.795140000000     0.0202849  
C632     C      0.014730000000     0.323380000000     0.822090000000    -0.0644297  
C633     C      0.030010000000     0.340960000000     0.841270000000     0.0185058  
C634     C      0.057340000000     0.361480000000     0.834030000000    -0.0968585  
C635     C      0.067430000000     0.364680000000     0.806790000000     0.0175645  
C636     C      0.051700000000     0.347120000000     0.787490000000    -0.0641498  
C637     C      0.069610000000     0.012770000000     0.791050000000    -0.063812   
C638     C      0.030850000000     0.024400000000     0.794080000000     0.0209093  
C639     C      0.007210000000     0.017910000000     0.816630000000    -0.0640025  
C640     C      0.022610000000     0.000720000000     0.836270000000     0.0199998  
C641     C      0.061580000000     0.989270000000     0.833410000000    -0.0978228  
C642     C      0.084670000000     0.995140000000     0.810390000000     0.0182613  
C643     C      0.015710000000     0.044120000000     0.774360000000     0.0221136  
C644     C      0.039380000000     0.066650000000     0.767860000000    -0.0648956  
C645     C      0.024000000000     0.086300000000     0.750670000000     0.0200332  
C646     C      0.985020000000     0.083450000000     0.739230000000    -0.098154   
C647     C      0.961900000000     0.060450000000     0.745120000000     0.0191264  
C648     C      0.976950000000     0.041100000000     0.762750000000    -0.0651551  
C649     C      0.820750000000     0.308280000000     0.763020000000    -0.0647789  
C650     C      0.781980000000     0.305280000000     0.774650000000     0.0217     
C651     C      0.758560000000     0.282540000000     0.768470000000    -0.0650243  
C652     C      0.774140000000     0.262740000000     0.751530000000     0.0192633  
C653     C      0.813060000000     0.265620000000     0.740010000000    -0.0984233  
C654     C      0.835990000000     0.288770000000     0.745620000000     0.0203031  
C655     C      0.766580000000     0.325220000000     0.794100000000     0.0209883  
C656     C      0.790180000000     0.332150000000     0.816520000000    -0.0639049  
C657     C      0.774490000000     0.349400000000     0.836020000000     0.0189439  
C658     C      0.735250000000     0.360470000000     0.833130000000    -0.0966992  
C659     C      0.712230000000     0.354210000000     0.810200000000     0.018126   
C660     C      0.727600000000     0.336510000000     0.791000000000    -0.0641966  
C661     C      0.976680000000     0.308250000000     0.586110000000    -0.0655651  
C662     C      0.015640000000     0.305160000000     0.574760000000     0.0222238  
C663     C      0.038990000000     0.282510000000     0.581360000000    -0.0652765  
C664     C      0.023150000000     0.262870000000     0.598370000000     0.0200534  
C665     C      0.983990000000     0.265800000000     0.609550000000    -0.0993226  
C666     C      0.961160000000     0.288890000000     0.603590000000     0.0206001  
C667     C      0.031250000000     0.324810000000     0.555100000000     0.021127   
C668     C      0.007890000000     0.331390000000     0.532460000000    -0.0642548  
C669     C      0.023730000000     0.348390000000     0.512810000000     0.0190625  
C670     C      0.062880000000     0.359580000000     0.515720000000    -0.0984177  
C671     C      0.085720000000     0.353630000000     0.538820000000     0.0200252  
C672     C      0.070210000000     0.336160000000     0.558190000000    -0.0646292  
C673     C      0.080700000000     0.876210000000     0.994200000000     0.331285   
C674     C      0.717300000000     0.877020000000     0.354670000000     0.333422   
C675     C      0.716950000000     0.876400000000     0.993790000000     0.332022   
C676     C      0.076920000000     0.878020000000     0.355150000000     0.334576   
C677     C      0.079240000000     0.472600000000     0.354940000000     0.33367    
C678     C      0.716150000000     0.473380000000     0.993980000000     0.332356   
C679     C      0.718480000000     0.471800000000     0.354800000000     0.332923   
C680     C      0.081350000000     0.473440000000     0.994180000000     0.331724   
C681     C      0.966160000000     0.744280000000     0.126170000000     0.334972   
C682     C      0.829470000000     0.604770000000     0.126890000000     0.333465   
C683     C      0.830020000000     0.743910000000     0.126240000000     0.335574   
C684     C      0.969840000000     0.605200000000     0.127970000000     0.334594   
C685     C      0.967390000000     0.604990000000     0.222550000000     0.333921   
C686     C      0.830580000000     0.744080000000     0.223270000000     0.334977   
C687     C      0.828120000000     0.604870000000     0.221620000000     0.333929   
C688     C      0.965390000000     0.744250000000     0.223390000000     0.335489   
C689     C      0.788160000000     0.518610000000     0.032400000000    -0.065988   
C690     C      0.764780000000     0.524770000000     0.055160000000     0.0220003  
C691     C      0.726030000000     0.513110000000     0.058170000000    -0.0648072  
C692     C      0.710780000000     0.495710000000     0.038670000000     0.0201549  
C693     C      0.733680000000     0.490120000000     0.015500000000    -0.0977062  
C694     C      0.772580000000     0.501670000000     0.012610000000     0.0215875  
C695     C      0.780180000000     0.544210000000     0.075080000000     0.0209193  
C696     C      0.819170000000     0.541110000000     0.086370000000    -0.0642625  
C697     C      0.834540000000     0.560300000000     0.104070000000     0.0183522  
C698     C      0.811520000000     0.583240000000     0.110340000000    -0.097282   
C699     C      0.772280000000     0.586130000000     0.099280000000     0.019233   
C700     C      0.756590000000     0.566640000000     0.082040000000    -0.0640449  
C701     C      0.744580000000     0.501060000000     0.286530000000    -0.0641369  
C702     C      0.766770000000     0.523970000000     0.293890000000     0.0205024  
C703     C      0.775330000000     0.528490000000     0.321030000000    -0.0643412  
C704     C      0.760910000000     0.510980000000     0.340580000000     0.0173454  
C705     C      0.737150000000     0.488590000000     0.333520000000    -0.0956453  
C706     C      0.729630000000     0.483600000000     0.306200000000     0.0172875  
C707     C      0.779600000000     0.544030000000     0.273770000000     0.0209789  
C708     C      0.802330000000     0.536640000000     0.251100000000    -0.0645815  
C709     C      0.817330000000     0.556280000000     0.233620000000     0.0177874  
C710     C      0.809350000000     0.583600000000     0.238360000000    -0.0969589  
C711     C      0.785020000000     0.590660000000     0.260490000000     0.0180443  
C712     C      0.770540000000     0.571140000000     0.278010000000    -0.0650599  
C713     C      0.774940000000     0.819910000000     0.026940000000    -0.0666703  
C714     C      0.766740000000     0.824270000000     0.054140000000     0.0211878  
C715     C      0.744090000000     0.846900000000     0.061750000000    -0.0650409  
C716     C      0.728460000000     0.864300000000     0.042260000000     0.0176544  
C717     C      0.735700000000     0.859470000000     0.014880000000    -0.0973998  
C718     C      0.759780000000     0.837300000000     0.007570000000     0.0209425  
C719     C      0.780420000000     0.804310000000     0.074080000000     0.0209952  
C720     C      0.772370000000     0.777100000000     0.069620000000    -0.066046   
C721     C      0.787480000000     0.757710000000     0.087020000000     0.0194254  
C722     C      0.811360000000     0.765010000000     0.109270000000    -0.0986146  
C723     C      0.818470000000     0.792390000000     0.114180000000     0.0181425  
C724     C      0.802880000000     0.811900000000     0.096790000000    -0.065114   
C725     C      0.029000000000     0.531790000000     0.028190000000    -0.0665985  
C726     C      0.034140000000     0.525670000000     0.055390000000     0.0213013  
C727     C      0.053130000000     0.501500000000     0.062560000000    -0.0649203  
C728     C      0.068040000000     0.484200000000     0.042750000000     0.0176362  
C729     C      0.063620000000     0.490620000000     0.015440000000    -0.0966892  
C730     C      0.043360000000     0.514460000000     0.008470000000     0.0217455  
C731     C      0.020730000000     0.545180000000     0.075880000000     0.0213326  
C732     C      0.032050000000     0.572140000000     0.073340000000    -0.0655029  
C733     C      0.016770000000     0.591320000000     0.090930000000     0.019482   
C734     C      0.989410000000     0.584070000000     0.111430000000    -0.0976589  
C735     C      0.979290000000     0.556840000000     0.114610000000     0.0181012  
C736     C      0.995010000000     0.537530000000     0.097050000000    -0.0651514  
C737     C      0.017770000000     0.778240000000     0.281720000000    -0.0666881  
C738     C      0.012610000000     0.805450000000     0.275620000000     0.0221144  
C739     C      0.993590000000     0.812630000000     0.251470000000    -0.0660064  
C740     C      0.978680000000     0.792820000000     0.234170000000     0.0186818  
C741     C      0.983130000000     0.765510000000     0.240570000000    -0.0992321  
C742     C      0.003420000000     0.758530000000     0.264390000000     0.0208599  
C743     C      0.026020000000     0.825940000000     0.295140000000     0.0203379  
C744     C      0.014730000000     0.823380000000     0.322090000000    -0.0644571  
C745     C      0.030010000000     0.840960000000     0.341270000000     0.0185419  
C746     C      0.057340000000     0.861480000000     0.334030000000    -0.0969019  
C747     C      0.067430000000     0.864680000000     0.306800000000     0.0176194  
C748     C      0.051700000000     0.847120000000     0.287490000000    -0.0642172  
C749     C      0.069610000000     0.512770000000     0.291050000000    -0.0641292  
C750     C      0.030850000000     0.524400000000     0.294080000000     0.0208346  
C751     C      0.007210000000     0.517910000000     0.316630000000    -0.0637221  
C752     C      0.022610000000     0.500720000000     0.336270000000     0.019072   
C753     C      0.061580000000     0.489270000000     0.333410000000    -0.0972979  
C754     C      0.084670000000     0.495140000000     0.310390000000     0.018514   
C755     C      0.015710000000     0.544120000000     0.274360000000     0.0221412  
C756     C      0.039380000000     0.566650000000     0.267860000000    -0.0649292  
C757     C      0.024000000000     0.586300000000     0.250670000000     0.0200602  
C758     C      0.985020000000     0.583450000000     0.239230000000    -0.0981769  
C759     C      0.961900000000     0.560450000000     0.245120000000     0.0191122  
C760     C      0.976950000000     0.541100000000     0.262760000000    -0.0652022  
C761     C      0.820750000000     0.808280000000     0.263020000000    -0.06479    
C762     C      0.781980000000     0.805280000000     0.274650000000     0.0217133  
C763     C      0.758560000000     0.782540000000     0.268470000000    -0.0650273  
C764     C      0.774140000000     0.762740000000     0.251530000000     0.0192686  
C765     C      0.813060000000     0.765620000000     0.240010000000    -0.0984281  
C766     C      0.835990000000     0.788770000000     0.245620000000     0.0203024  
C767     C      0.766580000000     0.825210000000     0.294100000000     0.0209433  
C768     C      0.790180000000     0.832150000000     0.316530000000    -0.0639073  
C769     C      0.774490000000     0.849400000000     0.336020000000     0.0190137  
C770     C      0.735250000000     0.860470000000     0.333140000000    -0.0967667  
C771     C      0.712230000000     0.854210000000     0.310190000000     0.0180954  
C772     C      0.727600000000     0.836510000000     0.291000000000    -0.0641728  
C773     C      0.976680000000     0.808250000000     0.086110000000    -0.0655609  
C774     C      0.015640000000     0.805150000000     0.074760000000     0.0222795  
C775     C      0.038990000000     0.782510000000     0.081360000000    -0.0652638  
C776     C      0.023150000000     0.762870000000     0.098370000000     0.0201     
C777     C      0.983990000000     0.765800000000     0.109550000000    -0.0993154  
C778     C      0.961160000000     0.788890000000     0.103590000000     0.0206351  
C779     C      0.031250000000     0.824810000000     0.055100000000     0.0212411  
C780     C      0.007890000000     0.831390000000     0.032460000000    -0.0646697  
C781     C      0.023730000000     0.848390000000     0.012810000000     0.020759   
C782     C      0.062880000000     0.859580000000     0.015720000000    -0.0966532  
C783     C      0.085720000000     0.853630000000     0.038820000000     0.0194816  
C784     C      0.070210000000     0.836160000000     0.058180000000    -0.0643631  
C785     C      0.080700000000     0.876210000000     0.494200000000     0.334742   
C786     C      0.717300000000     0.877020000000     0.854670000000     0.333357   
C787     C      0.716950000000     0.876400000000     0.493790000000     0.335693   
C788     C      0.076920000000     0.878020000000     0.855150000000     0.334565   
C789     C      0.079240000000     0.472600000000     0.854940000000     0.333669   
C790     C      0.716150000000     0.473380000000     0.493980000000     0.336042   
C791     C      0.718480000000     0.471800000000     0.854800000000     0.332923   
C792     C      0.081350000000     0.473440000000     0.494180000000     0.33539    
C793     C      0.966160000000     0.744280000000     0.626170000000     0.334967   
C794     C      0.829470000000     0.604770000000     0.626890000000     0.33346    
C795     C      0.830020000000     0.743910000000     0.626240000000     0.335568   
C796     C      0.969840000000     0.605200000000     0.627960000000     0.334524   
C797     C      0.967390000000     0.604990000000     0.722550000000     0.333926   
C798     C      0.830580000000     0.744080000000     0.723270000000     0.334981   
C799     C      0.828120000000     0.604870000000     0.721620000000     0.333935   
C800     C      0.965390000000     0.744250000000     0.723390000000     0.335484   
C801     C      0.788160000000     0.518610000000     0.532400000000    -0.0656245  
C802     C      0.764780000000     0.524770000000     0.555150000000     0.0219254  
C803     C      0.726030000000     0.513110000000     0.558180000000    -0.065113   
C804     C      0.710780000000     0.495710000000     0.538670000000     0.0207408  
C805     C      0.733680000000     0.490120000000     0.515500000000    -0.0995651  
C806     C      0.772580000000     0.501670000000     0.512610000000     0.0199432  
C807     C      0.780180000000     0.544210000000     0.575080000000     0.0208814  
C808     C      0.819170000000     0.541110000000     0.586370000000    -0.0642818  
C809     C      0.834540000000     0.560300000000     0.604070000000     0.0183211  
C810     C      0.811520000000     0.583240000000     0.610340000000    -0.0972959  
C811     C      0.772280000000     0.586130000000     0.599280000000     0.0191988  
C812     C      0.756590000000     0.566640000000     0.582040000000    -0.0640793  
C813     C      0.744580000000     0.501060000000     0.786530000000    -0.0641321  
C814     C      0.766770000000     0.523970000000     0.793890000000     0.0205012  
C815     C      0.775330000000     0.528490000000     0.821030000000    -0.0643523  
C816     C      0.760910000000     0.510980000000     0.840580000000     0.0173363  
C817     C      0.737150000000     0.488590000000     0.833520000000    -0.0956504  
C818     C      0.729630000000     0.483600000000     0.806200000000     0.0172941  
C819     C      0.779600000000     0.544030000000     0.773770000000     0.0209825  
C820     C      0.802330000000     0.536640000000     0.751100000000    -0.0645898  
C821     C      0.817330000000     0.556280000000     0.733620000000     0.0178025  
C822     C      0.809350000000     0.583600000000     0.738360000000    -0.096958   
C823     C      0.785020000000     0.590660000000     0.760490000000     0.0180425  
C824     C      0.770540000000     0.571140000000     0.778010000000    -0.0650619  
C825     C      0.774940000000     0.819910000000     0.526940000000    -0.0662402  
C826     C      0.766740000000     0.824270000000     0.554140000000     0.0210369  
C827     C      0.744090000000     0.846900000000     0.561750000000    -0.0652499  
C828     C      0.728460000000     0.864300000000     0.542260000000     0.0182208  
C829     C      0.735700000000     0.859470000000     0.514880000000    -0.0992147  
C830     C      0.759780000000     0.837300000000     0.507570000000     0.0192272  
C831     C      0.780420000000     0.804310000000     0.574080000000     0.0209871  
C832     C      0.772370000000     0.777100000000     0.569620000000    -0.0660862  
C833     C      0.787480000000     0.757710000000     0.587020000000     0.0193842  
C834     C      0.811360000000     0.765010000000     0.609270000000    -0.098627   
C835     C      0.818470000000     0.792390000000     0.614180000000     0.0181338  
C836     C      0.802880000000     0.811900000000     0.596790000000    -0.0651381  
C837     C      0.029000000000     0.531790000000     0.528190000000    -0.0661522  
C838     C      0.034140000000     0.525670000000     0.555390000000     0.0211426  
C839     C      0.053130000000     0.501500000000     0.562560000000    -0.0651215  
C840     C      0.068040000000     0.484200000000     0.542750000000     0.0181966  
C841     C      0.063620000000     0.490620000000     0.515440000000    -0.0984867  
C842     C      0.043360000000     0.514460000000     0.508470000000     0.0200036  
C843     C      0.020730000000     0.545180000000     0.575880000000     0.0213369  
C844     C      0.032050000000     0.572140000000     0.573340000000    -0.0655513  
C845     C      0.016770000000     0.591320000000     0.590930000000     0.0194627  
C846     C      0.989410000000     0.584070000000     0.611430000000    -0.0977223  
C847     C      0.979290000000     0.556840000000     0.614610000000     0.0181189  
C848     C      0.995010000000     0.537530000000     0.597050000000    -0.0651907  
C849     C      0.017770000000     0.778240000000     0.781730000000    -0.0667514  
C850     C      0.012610000000     0.805450000000     0.775620000000     0.0221522  
C851     C      0.993590000000     0.812630000000     0.751480000000    -0.0659784  
C852     C      0.978680000000     0.792820000000     0.734170000000     0.0186323  
C853     C      0.983130000000     0.765510000000     0.740570000000    -0.099206   
C854     C      0.003420000000     0.758530000000     0.764390000000     0.0208578  
C855     C      0.026020000000     0.825940000000     0.795140000000     0.0203189  
C856     C      0.014730000000     0.823380000000     0.822090000000    -0.0644524  
C857     C      0.030010000000     0.840960000000     0.841270000000     0.0185145  
C858     C      0.057340000000     0.861480000000     0.834030000000    -0.0968726  
C859     C      0.067430000000     0.864680000000     0.806790000000     0.0175724  
C860     C      0.051700000000     0.847120000000     0.787490000000    -0.0641847  
C861     C      0.069610000000     0.512770000000     0.791050000000    -0.0641315  
C862     C      0.030850000000     0.524400000000     0.794080000000     0.0208425  
C863     C      0.007210000000     0.517910000000     0.816630000000    -0.0637394  
C864     C      0.022610000000     0.500720000000     0.836270000000     0.0190669  
C865     C      0.061580000000     0.489270000000     0.833410000000    -0.0973056  
C866     C      0.084670000000     0.495140000000     0.810390000000     0.0185191  
C867     C      0.015710000000     0.544120000000     0.774360000000     0.0221154  
C868     C      0.039380000000     0.566650000000     0.767860000000    -0.0649201  
C869     C      0.024000000000     0.586300000000     0.750670000000     0.0200549  
C870     C      0.985020000000     0.583450000000     0.739230000000    -0.0981746  
C871     C      0.961900000000     0.560450000000     0.745120000000     0.0191229  
C872     C      0.976950000000     0.541100000000     0.762750000000    -0.0651786  
C873     C      0.820750000000     0.808280000000     0.763020000000    -0.0647849  
C874     C      0.781980000000     0.805280000000     0.774650000000     0.0217086  
C875     C      0.758560000000     0.782540000000     0.768470000000    -0.0650289  
C876     C      0.774140000000     0.762740000000     0.751530000000     0.0192658  
C877     C      0.813060000000     0.765620000000     0.740010000000    -0.0984251  
C878     C      0.835990000000     0.788770000000     0.745620000000     0.0203033  
C879     C      0.766580000000     0.825210000000     0.794100000000     0.020951   
C880     C      0.790180000000     0.832150000000     0.816520000000    -0.0638851  
C881     C      0.774490000000     0.849400000000     0.836020000000     0.0189294  
C882     C      0.735250000000     0.860470000000     0.833130000000    -0.0966951  
C883     C      0.712230000000     0.854210000000     0.810200000000     0.0181106  
C884     C      0.727600000000     0.836510000000     0.791000000000    -0.064176   
C885     C      0.976680000000     0.808250000000     0.586110000000    -0.0655877  
C886     C      0.015640000000     0.805150000000     0.574760000000     0.022259   
C887     C      0.038990000000     0.782510000000     0.581360000000    -0.0653071  
C888     C      0.023150000000     0.762870000000     0.598370000000     0.0200676  
C889     C      0.983990000000     0.765800000000     0.609550000000    -0.0993317  
C890     C      0.961160000000     0.788890000000     0.603590000000     0.0206081  
C891     C      0.031250000000     0.824810000000     0.555100000000     0.0211123  
C892     C      0.007890000000     0.831390000000     0.532460000000    -0.064253   
C893     C      0.023730000000     0.848390000000     0.512810000000     0.0190566  
C894     C      0.062880000000     0.859580000000     0.515720000000    -0.09842    
C895     C      0.085720000000     0.853630000000     0.538820000000     0.0200187  
C896     C      0.070210000000     0.836160000000     0.558190000000    -0.0646281  
H1       H      0.147570000000     0.366660000000     0.386870000000     0.206796   
H2       H      0.238530000000     0.924490000000     0.964730000000     0.201961   
H3       H      0.648720000000     0.982810000000     0.386950000000     0.206984   
H4       H      0.558550000000     0.925060000000     0.965130000000     0.202904   
H5       H      0.293370000000     0.398960000000     0.931540000000     0.12414    
H6       H      0.300110000000     0.951940000000     0.421060000000     0.188344   
H7       H      0.185420000000     0.016270000000     0.937260000000     0.146042   
H8       H      0.612830000000     0.020350000000     0.414400000000     0.19327    
H9       H      0.503250000000     0.949950000000     0.419050000000     0.130072   
H10      H      0.496890000000     0.396670000000     0.931930000000     0.185187   
H11      H      0.611380000000     0.333250000000     0.937650000000     0.147272   
H12      H      0.183690000000     0.329280000000     0.413350000000     0.193897   
H13      H      0.569120000000     0.021910000000     0.431680000000     0.204686   
H14      H      0.501050000000     0.365330000000     0.920370000000     0.204788   
H15      H      0.225350000000     0.327450000000     0.932650000000     0.204544   
H16      H      0.295520000000     0.984290000000     0.429270000000     0.204323   
H17      H      0.399230000000     0.136960000000     0.116580000000     0.206839   
H18      H      0.308240000000     0.214840000000     0.174330000000     0.203052   
H19      H      0.397900000000     0.137020000000     0.232710000000     0.206972   
H20      H      0.488230000000     0.215190000000     0.175040000000     0.203318   
H21      H      0.253230000000     0.169610000000     0.149370000000     0.129237   
H22      H      0.246970000000     0.182190000000     0.202580000000     0.185215   
H23      H      0.361200000000     0.187260000000     0.266170000000     0.1465     
H24      H      0.433780000000     0.164410000000     0.270270000000     0.193128   
H25      H      0.543460000000     0.169080000000     0.199970000000     0.129999   
H26      H      0.549910000000     0.181980000000     0.146710000000     0.185245   
H27      H      0.435520000000     0.187720000000     0.083210000000     0.147285   
H28      H      0.363140000000     0.163630000000     0.079160000000     0.193912   
H29      H      0.477410000000     0.181790000000     0.271860000000     0.204683   
H30      H      0.545800000000     0.170400000000     0.115380000000     0.205035   
H31      H      0.320980000000     0.182460000000     0.077370000000     0.205159   
H32      H      0.250770000000     0.169090000000     0.233320000000     0.205211   
H33      H      0.207500000000     0.017560000000     0.075590000000     0.0473229  
H34      H      0.180550000000     0.987290000000     0.041340000000     0.0390559  
H35      H      0.290910000000     0.997690000000     0.994990000000     0.0275892  
H36      H      0.318030000000     0.027530000000     0.029570000000     0.0468044  
H37      H      0.337850000000     0.023920000000     0.081340000000     0.0463679  
H38      H      0.365030000000     0.057640000000     0.112100000000     0.0364025  
H39      H      0.253850000000     0.103570000000     0.103780000000     0.0366928  
H40      H      0.226510000000     0.069520000000     0.073440000000     0.0470896  
H41      H      0.292830000000     0.045850000000     0.327180000000     0.0465275  
H42      H      0.267530000000     0.015540000000     0.361320000000     0.0390744  
H43      H      0.211550000000     0.966530000000     0.300010000000     0.0389171  
H44      H      0.237600000000     0.997200000000     0.265690000000     0.0460182  
H45      H      0.309700000000     0.015820000000     0.247450000000     0.0466656  
H46      H      0.335860000000     0.050080000000     0.216770000000     0.0386506  
H47      H      0.278000000000     0.111400000000     0.264840000000     0.0366711  
H48      H      0.252600000000     0.077310000000     0.295170000000     0.0464669  
H49      H      0.237360000000     0.350630000000     0.082650000000     0.0460563  
H50      H      0.210150000000     0.381190000000     0.048630000000     0.0377527  
H51      H      0.266250000000     0.332890000000     0.986770000000     0.0316297  
H52      H      0.292790000000     0.302770000000     0.020600000000     0.0461851  
H53      H      0.254660000000     0.270760000000     0.052420000000     0.0459278  
H54      H      0.281120000000     0.236900000000     0.082550000000     0.0337402  
H55      H      0.336630000000     0.298760000000     0.131150000000     0.0375446  
H56      H      0.309510000000     0.332810000000     0.100580000000     0.0460593  
H57      H      0.557470000000     0.996400000000     0.083440000000     0.0459972  
H58      H      0.583390000000     0.965980000000     0.048850000000     0.0376813  
H59      H      0.539320000000     0.020160000000     0.987720000000     0.0315112  
H60      H      0.514020000000     0.050170000000     0.022140000000     0.0466108  
H61      H      0.552310000000     0.078470000000     0.057400000000     0.0463609  
H62      H      0.525640000000     0.111980000000     0.087870000000     0.0360237  
H63      H      0.458400000000     0.050500000000     0.130180000000     0.0383849  
H64      H      0.485840000000     0.016820000000     0.099360000000     0.046152   
H65      H      0.489230000000     0.333520000000     0.246380000000     0.046513   
H66      H      0.463300000000     0.298930000000     0.215960000000     0.037327   
H67      H      0.507480000000     0.237780000000     0.270080000000     0.0329749  
H68      H      0.532780000000     0.272190000000     0.300090000000     0.046157   
H69      H      0.494490000000     0.307420000000     0.328430000000     0.0461959  
H70      H      0.521180000000     0.337890000000     0.361930000000     0.0360135  
H71      H      0.588290000000     0.380270000000     0.300460000000     0.0383709  
H72      H      0.560850000000     0.349460000000     0.266780000000     0.0460497  
H73      H      0.477310000000     0.026780000000     0.319440000000     0.0469019  
H74      H      0.504150000000     0.996540000000     0.353780000000     0.035795   
H75      H      0.614980000000     0.986820000000     0.307750000000     0.037127   
H76      H      0.588310000000     0.017460000000     0.273780000000     0.0470326  
H77      H      0.569290000000     0.069460000000     0.276720000000     0.0466825  
H78      H      0.542480000000     0.103790000000     0.246470000000     0.0361684  
H79      H      0.431580000000     0.057810000000     0.236800000000     0.0370921  
H80      H      0.458220000000     0.023840000000     0.267450000000     0.0471187  
H81      H      0.228680000000     0.279730000000     0.277360000000     0.0464063  
H82      H      0.255790000000     0.245140000000     0.247520000000     0.0316585  
H83      H      0.366240000000     0.291430000000     0.237220000000     0.0388983  
H84      H      0.339310000000     0.325680000000     0.267480000000     0.0473461  
H85      H      0.320250000000     0.323550000000     0.319400000000     0.0471334  
H86      H      0.292920000000     0.353890000000     0.353460000000     0.0379072  
H87      H      0.181750000000     0.362250000000     0.307530000000     0.0364552  
H88      H      0.208920000000     0.331490000000     0.273810000000     0.0462689  
H89      H      0.569020000000     0.279620000000     0.072700000000     0.0467657  
H90      H      0.541450000000     0.245310000000     0.102660000000     0.03163    
H91      H      0.430750000000     0.291590000000     0.111730000000     0.0381627  
H92      H      0.458170000000     0.325590000000     0.081330000000     0.0466076  
H93      H      0.477870000000     0.322730000000     0.029570000000     0.0471012  
H94      H      0.505420000000     0.352670000000     0.995250000000     0.0299986  
H95      H      0.616130000000     0.361780000000     0.041510000000     0.038432   
H96      H      0.588730000000     0.331390000000     0.075520000000     0.0465463  
H97      H      0.147570000000     0.366660000000     0.886870000000     0.206773   
H98      H      0.238530000000     0.924490000000     0.464730000000     0.202277   
H99      H      0.648720000000     0.982810000000     0.886950000000     0.207135   
H100     H      0.558550000000     0.925060000000     0.465130000000     0.203221   
H101     H      0.293370000000     0.398960000000     0.431540000000     0.124247   
H102     H      0.300110000000     0.951940000000     0.921060000000     0.188242   
H103     H      0.185420000000     0.016270000000     0.437260000000     0.146239   
H104     H      0.612830000000     0.020350000000     0.914400000000     0.193154   
H105     H      0.503250000000     0.949950000000     0.919050000000     0.130025   
H106     H      0.496890000000     0.396670000000     0.431930000000     0.185266   
H107     H      0.611380000000     0.333250000000     0.437650000000     0.147464   
H108     H      0.183690000000     0.329280000000     0.913340000000     0.193646   
H109     H      0.569120000000     0.021910000000     0.931680000000     0.204483   
H110     H      0.501050000000     0.365330000000     0.420370000000     0.204987   
H111     H      0.225350000000     0.327450000000     0.432650000000     0.204803   
H112     H      0.295520000000     0.984290000000     0.929270000000     0.204146   
H113     H      0.399230000000     0.136960000000     0.616580000000     0.206806   
H114     H      0.308240000000     0.214840000000     0.674330000000     0.203057   
H115     H      0.397900000000     0.137020000000     0.732710000000     0.206967   
H116     H      0.488230000000     0.215190000000     0.675040000000     0.203324   
H117     H      0.253230000000     0.169610000000     0.649370000000     0.129243   
H118     H      0.246970000000     0.182190000000     0.702580000000     0.185218   
H119     H      0.361200000000     0.187260000000     0.766170000000     0.146482   
H120     H      0.433780000000     0.164410000000     0.770270000000     0.193032   
H121     H      0.543460000000     0.169080000000     0.699970000000     0.130004   
H122     H      0.549910000000     0.181980000000     0.646710000000     0.185238   
H123     H      0.435520000000     0.187720000000     0.583210000000     0.14721    
H124     H      0.363140000000     0.163630000000     0.579160000000     0.193792   
H125     H      0.477410000000     0.181790000000     0.771870000000     0.204488   
H126     H      0.545800000000     0.170400000000     0.615380000000     0.204978   
H127     H      0.320980000000     0.182460000000     0.577370000000     0.205025   
H128     H      0.250770000000     0.169090000000     0.733320000000     0.205205   
H129     H      0.207500000000     0.017560000000     0.575590000000     0.0473961  
H130     H      0.180550000000     0.987290000000     0.541340000000     0.038759   
H131     H      0.290910000000     0.997690000000     0.494990000000     0.0290768  
H132     H      0.318030000000     0.027530000000     0.529570000000     0.0463654  
H133     H      0.337850000000     0.023920000000     0.581340000000     0.0462972  
H134     H      0.365030000000     0.057640000000     0.612100000000     0.0363832  
H135     H      0.253850000000     0.103570000000     0.603780000000     0.0366552  
H136     H      0.226510000000     0.069520000000     0.573440000000     0.0469937  
H137     H      0.292830000000     0.045850000000     0.827180000000     0.0464794  
H138     H      0.267530000000     0.015540000000     0.861320000000     0.0390162  
H139     H      0.211550000000     0.966530000000     0.800010000000     0.0389289  
H140     H      0.237600000000     0.997200000000     0.765690000000     0.0460314  
H141     H      0.309700000000     0.015820000000     0.747460000000     0.0466863  
H142     H      0.335860000000     0.050080000000     0.716770000000     0.0386597  
H143     H      0.278000000000     0.111400000000     0.764840000000     0.0366553  
H144     H      0.252600000000     0.077310000000     0.795170000000     0.0464367  
H145     H      0.237360000000     0.350630000000     0.582650000000     0.0460931  
H146     H      0.210150000000     0.381190000000     0.548630000000     0.0375051  
H147     H      0.266250000000     0.332890000000     0.486770000000     0.0330976  
H148     H      0.292790000000     0.302770000000     0.520600000000     0.0456995  
H149     H      0.254660000000     0.270760000000     0.552420000000     0.0457675  
H150     H      0.281120000000     0.236900000000     0.582550000000     0.0336639  
H151     H      0.336630000000     0.298760000000     0.631150000000     0.0375467  
H152     H      0.309510000000     0.332810000000     0.600580000000     0.0460347  
H153     H      0.557470000000     0.996400000000     0.583440000000     0.0460307  
H154     H      0.583390000000     0.965980000000     0.548850000000     0.0374287  
H155     H      0.539320000000     0.020160000000     0.487730000000     0.0329889  
H156     H      0.514020000000     0.050170000000     0.522140000000     0.0461259  
H157     H      0.552310000000     0.078470000000     0.557400000000     0.0462207  
H158     H      0.525640000000     0.111980000000     0.587870000000     0.035947   
H159     H      0.458400000000     0.050500000000     0.630180000000     0.0383779  
H160     H      0.485840000000     0.016820000000     0.599360000000     0.0461258  
H161     H      0.489230000000     0.333520000000     0.746380000000     0.0465139  
H162     H      0.463300000000     0.298930000000     0.715970000000     0.0373511  
H163     H      0.507480000000     0.237780000000     0.770080000000     0.0329624  
H164     H      0.532780000000     0.272190000000     0.800090000000     0.0461593  
H165     H      0.494490000000     0.307420000000     0.828430000000     0.0461465  
H166     H      0.521180000000     0.337890000000     0.861930000000     0.0359603  
H167     H      0.588290000000     0.380270000000     0.800460000000     0.0383974  
H168     H      0.560850000000     0.349460000000     0.766780000000     0.0460562  
H169     H      0.477310000000     0.026780000000     0.819440000000     0.0468709  
H170     H      0.504150000000     0.996540000000     0.853780000000     0.0357532  
H171     H      0.614980000000     0.986820000000     0.807750000000     0.037132   
H172     H      0.588310000000     0.017460000000     0.773780000000     0.0470454  
H173     H      0.569290000000     0.069460000000     0.776720000000     0.0466663  
H174     H      0.542480000000     0.103790000000     0.746470000000     0.0361679  
H175     H      0.431580000000     0.057810000000     0.736800000000     0.0370951  
H176     H      0.458220000000     0.023840000000     0.767450000000     0.0471143  
H177     H      0.228680000000     0.279730000000     0.777360000000     0.0463909  
H178     H      0.255790000000     0.245140000000     0.747520000000     0.0316551  
H179     H      0.366240000000     0.291430000000     0.737220000000     0.0389041  
H180     H      0.339310000000     0.325680000000     0.767480000000     0.0473529  
H181     H      0.320250000000     0.323550000000     0.819400000000     0.0470907  
H182     H      0.292920000000     0.353890000000     0.853460000000     0.037884   
H183     H      0.181750000000     0.362250000000     0.807530000000     0.0364549  
H184     H      0.208920000000     0.331490000000     0.773810000000     0.0462807  
H185     H      0.569020000000     0.279620000000     0.572700000000     0.0466691  
H186     H      0.541450000000     0.245310000000     0.602660000000     0.0315893  
H187     H      0.430750000000     0.291590000000     0.611730000000     0.0381453  
H188     H      0.458170000000     0.325590000000     0.581330000000     0.0465414  
H189     H      0.477870000000     0.322730000000     0.529570000000     0.0466487  
H190     H      0.505420000000     0.352670000000     0.495250000000     0.0314973  
H191     H      0.616130000000     0.361780000000     0.541510000000     0.0381468  
H192     H      0.588730000000     0.331390000000     0.575520000000     0.0466069  
H193     H      0.147570000000     0.866660000000     0.386870000000     0.206797   
H194     H      0.238530000000     0.424490000000     0.964730000000     0.201972   
H195     H      0.648720000000     0.482810000000     0.386950000000     0.207055   
H196     H      0.558550000000     0.425060000000     0.965130000000     0.202899   
H197     H      0.293370000000     0.898960000000     0.931540000000     0.124131   
H198     H      0.300110000000     0.451940000000     0.421060000000     0.188375   
H199     H      0.185420000000     0.516270000000     0.937260000000     0.145971   
H200     H      0.612830000000     0.520350000000     0.414400000000     0.193242   
H201     H      0.503250000000     0.449950000000     0.419050000000     0.130088   
H202     H      0.496890000000     0.896670000000     0.931930000000     0.185172   
H203     H      0.611380000000     0.833250000000     0.937650000000     0.147274   
H204     H      0.183690000000     0.829280000000     0.413350000000     0.1939     
H205     H      0.569120000000     0.521910000000     0.431680000000     0.20466    
H206     H      0.501050000000     0.865330000000     0.920370000000     0.204784   
H207     H      0.225350000000     0.827450000000     0.932650000000     0.204546   
H208     H      0.295520000000     0.484290000000     0.429270000000     0.204413   
H209     H      0.399230000000     0.636960000000     0.116580000000     0.206839   
H210     H      0.308240000000     0.714840000000     0.174330000000     0.20305    
H211     H      0.397900000000     0.637010000000     0.232710000000     0.206803   
H212     H      0.488230000000     0.715190000000     0.175040000000     0.203321   
H213     H      0.253230000000     0.669620000000     0.149370000000     0.129279   
H214     H      0.246970000000     0.682190000000     0.202580000000     0.185211   
H215     H      0.361200000000     0.687270000000     0.266170000000     0.14638    
H216     H      0.433780000000     0.664410000000     0.270270000000     0.193142   
H217     H      0.543460000000     0.669070000000     0.199970000000     0.129944   
H218     H      0.549910000000     0.681980000000     0.146710000000     0.185248   
H219     H      0.435520000000     0.687720000000     0.083210000000     0.147286   
H220     H      0.363140000000     0.663630000000     0.079160000000     0.193911   
H221     H      0.477410000000     0.681790000000     0.271860000000     0.204682   
H222     H      0.545800000000     0.670400000000     0.115380000000     0.205034   
H223     H      0.320980000000     0.682460000000     0.077370000000     0.20516    
H224     H      0.250770000000     0.669090000000     0.233320000000     0.205208   
H225     H      0.207500000000     0.517560000000     0.075590000000     0.0473227  
H226     H      0.180550000000     0.487290000000     0.041340000000     0.039074   
H227     H      0.290910000000     0.497690000000     0.994990000000     0.0280372  
H228     H      0.318030000000     0.527530000000     0.029570000000     0.0466791  
H229     H      0.337850000000     0.523920000000     0.081340000000     0.0463225  
H230     H      0.365030000000     0.557640000000     0.112100000000     0.0363869  
H231     H      0.253850000000     0.603570000000     0.103780000000     0.0366891  
H232     H      0.226510000000     0.569520000000     0.073440000000     0.0470752  
H233     H      0.292830000000     0.545850000000     0.327180000000     0.0465158  
H234     H      0.267530000000     0.515540000000     0.361320000000     0.0390481  
H235     H      0.211550000000     0.466530000000     0.300010000000     0.0388214  
H236     H      0.237600000000     0.497200000000     0.265690000000     0.0465024  
H237     H      0.309700000000     0.515820000000     0.247450000000     0.0466273  
H238     H      0.335860000000     0.550080000000     0.216770000000     0.038631   
H239     H      0.278000000000     0.611400000000     0.264840000000     0.0366595  
H240     H      0.252600000000     0.577310000000     0.295170000000     0.0464449  
H241     H      0.237360000000     0.850630000000     0.082650000000     0.0460432  
H242     H      0.210150000000     0.881190000000     0.048630000000     0.037737   
H243     H      0.266250000000     0.832890000000     0.986770000000     0.0316289  
H244     H      0.292790000000     0.802770000000     0.020600000000     0.0461861  
H245     H      0.254660000000     0.770760000000     0.052420000000     0.0459293  
H246     H      0.281120000000     0.736900000000     0.082550000000     0.0337415  
H247     H      0.336630000000     0.798760000000     0.131150000000     0.0375385  
H248     H      0.309510000000     0.832810000000     0.100580000000     0.0460444  
H249     H      0.557470000000     0.496400000000     0.083440000000     0.0464823  
H250     H      0.583390000000     0.465980000000     0.048850000000     0.0375826  
H251     H      0.539320000000     0.520160000000     0.987720000000     0.0314846  
H252     H      0.514020000000     0.550170000000     0.022140000000     0.0466062  
H253     H      0.552310000000     0.578470000000     0.057400000000     0.0463128  
H254     H      0.525640000000     0.611980000000     0.087870000000     0.0360533  
H255     H      0.458400000000     0.550500000000     0.130180000000     0.0383753  
H256     H      0.485840000000     0.516820000000     0.099360000000     0.0460633  
H257     H      0.489230000000     0.833520000000     0.246380000000     0.0464957  
H258     H      0.463300000000     0.798930000000     0.215960000000     0.0373215  
H259     H      0.507480000000     0.737780000000     0.270080000000     0.0329769  
H260     H      0.532780000000     0.772190000000     0.300090000000     0.0461569  
H261     H      0.494490000000     0.807420000000     0.328430000000     0.0462015  
H262     H      0.521180000000     0.837890000000     0.361930000000     0.0360102  
H263     H      0.588290000000     0.880270000000     0.300460000000     0.0383526  
H264     H      0.560850000000     0.849460000000     0.266780000000     0.0460446  
H265     H      0.477310000000     0.526780000000     0.319440000000     0.0467763  
H266     H      0.504150000000     0.496540000000     0.353780000000     0.0362466  
H267     H      0.614980000000     0.486820000000     0.307750000000     0.0371438  
H268     H      0.588310000000     0.517460000000     0.273780000000     0.0470317  
H269     H      0.569290000000     0.569460000000     0.276720000000     0.0466702  
H270     H      0.542480000000     0.603800000000     0.246470000000     0.0361561  
H271     H      0.431580000000     0.557810000000     0.236800000000     0.0370755  
H272     H      0.458220000000     0.523840000000     0.267450000000     0.0470753  
H273     H      0.228680000000     0.779730000000     0.277360000000     0.0464089  
H274     H      0.255790000000     0.745140000000     0.247520000000     0.0316582  
H275     H      0.366240000000     0.791430000000     0.237220000000     0.0388942  
H276     H      0.339310000000     0.825680000000     0.267480000000     0.0473368  
H277     H      0.320250000000     0.823550000000     0.319400000000     0.0471253  
H278     H      0.292920000000     0.853890000000     0.353460000000     0.0379046  
H279     H      0.181750000000     0.862250000000     0.307530000000     0.0364527  
H280     H      0.208920000000     0.831490000000     0.273810000000     0.0462567  
H281     H      0.569020000000     0.779620000000     0.072700000000     0.0467746  
H282     H      0.541450000000     0.745310000000     0.102660000000     0.0316276  
H283     H      0.430750000000     0.791590000000     0.111730000000     0.0381567  
H284     H      0.458170000000     0.825590000000     0.081330000000     0.046602   
H285     H      0.477870000000     0.822730000000     0.029570000000     0.0470973  
H286     H      0.505420000000     0.852670000000     0.995250000000     0.029994   
H287     H      0.616130000000     0.861780000000     0.041510000000     0.0384273  
H288     H      0.588730000000     0.831390000000     0.075520000000     0.0465384  
H289     H      0.147570000000     0.866660000000     0.886870000000     0.206774   
H290     H      0.238530000000     0.424490000000     0.464730000000     0.202287   
H291     H      0.648720000000     0.482810000000     0.886950000000     0.207207   
H292     H      0.558550000000     0.425060000000     0.465130000000     0.203216   
H293     H      0.293370000000     0.898960000000     0.431540000000     0.124238   
H294     H      0.300110000000     0.451940000000     0.921060000000     0.188274   
H295     H      0.185420000000     0.516270000000     0.437260000000     0.146168   
H296     H      0.612830000000     0.520350000000     0.914400000000     0.193126   
H297     H      0.503250000000     0.449950000000     0.919050000000     0.130041   
H298     H      0.496890000000     0.896670000000     0.431930000000     0.185251   
H299     H      0.611380000000     0.833250000000     0.437650000000     0.147466   
H300     H      0.183690000000     0.829280000000     0.913340000000     0.193649   
H301     H      0.569120000000     0.521910000000     0.931680000000     0.204456   
H302     H      0.501050000000     0.865330000000     0.420370000000     0.204982   
H303     H      0.225350000000     0.827450000000     0.432650000000     0.204805   
H304     H      0.295520000000     0.484290000000     0.929270000000     0.204235   
H305     H      0.399230000000     0.636960000000     0.616580000000     0.206806   
H306     H      0.308240000000     0.714840000000     0.674330000000     0.203056   
H307     H      0.397900000000     0.637010000000     0.732710000000     0.206799   
H308     H      0.488230000000     0.715190000000     0.675040000000     0.203327   
H309     H      0.253230000000     0.669620000000     0.649370000000     0.129285   
H310     H      0.246970000000     0.682190000000     0.702580000000     0.185215   
H311     H      0.361200000000     0.687270000000     0.766170000000     0.146362   
H312     H      0.433780000000     0.664410000000     0.770270000000     0.193046   
H313     H      0.543460000000     0.669070000000     0.699970000000     0.129949   
H314     H      0.549910000000     0.681980000000     0.646710000000     0.185241   
H315     H      0.435520000000     0.687720000000     0.583210000000     0.147211   
H316     H      0.363140000000     0.663630000000     0.579160000000     0.19379    
H317     H      0.477410000000     0.681790000000     0.771870000000     0.204487   
H318     H      0.545800000000     0.670400000000     0.615380000000     0.204978   
H319     H      0.320980000000     0.682460000000     0.577370000000     0.205025   
H320     H      0.250770000000     0.669090000000     0.733320000000     0.205202   
H321     H      0.207500000000     0.517560000000     0.575590000000     0.0473958  
H322     H      0.180550000000     0.487290000000     0.541340000000     0.0387773  
H323     H      0.290910000000     0.497690000000     0.494990000000     0.0295277  
H324     H      0.318030000000     0.527530000000     0.529570000000     0.046239   
H325     H      0.337850000000     0.523920000000     0.581340000000     0.0462515  
H326     H      0.365030000000     0.557640000000     0.612100000000     0.0363675  
H327     H      0.253850000000     0.603570000000     0.603780000000     0.0366514  
H328     H      0.226510000000     0.569520000000     0.573440000000     0.0469791  
H329     H      0.292830000000     0.545850000000     0.827180000000     0.0464675  
H330     H      0.267530000000     0.515540000000     0.861320000000     0.0389897  
H331     H      0.211550000000     0.466530000000     0.800010000000     0.0388328  
H332     H      0.237600000000     0.497200000000     0.765690000000     0.046517   
H333     H      0.309700000000     0.515820000000     0.747460000000     0.0466476  
H334     H      0.335860000000     0.550080000000     0.716770000000     0.03864    
H335     H      0.278000000000     0.611400000000     0.764840000000     0.0366438  
H336     H      0.252600000000     0.577310000000     0.795170000000     0.0464145  
H337     H      0.237360000000     0.850630000000     0.582650000000     0.0460799  
H338     H      0.210150000000     0.881190000000     0.548630000000     0.0374893  
H339     H      0.266250000000     0.832890000000     0.486770000000     0.0330974  
H340     H      0.292790000000     0.802770000000     0.520600000000     0.0457002  
H341     H      0.254660000000     0.770760000000     0.552420000000     0.0457689  
H342     H      0.281120000000     0.736900000000     0.582550000000     0.0336652  
H343     H      0.336630000000     0.798760000000     0.631150000000     0.0375406  
H344     H      0.309510000000     0.832810000000     0.600580000000     0.0460197  
H345     H      0.557470000000     0.496400000000     0.583440000000     0.0465178  
H346     H      0.583390000000     0.465980000000     0.548850000000     0.0373297  
H347     H      0.539320000000     0.520160000000     0.487730000000     0.0329667  
H348     H      0.514020000000     0.550170000000     0.522140000000     0.0461201  
H349     H      0.552310000000     0.578470000000     0.557400000000     0.0461724  
H350     H      0.525640000000     0.611980000000     0.587870000000     0.0359766  
H351     H      0.458400000000     0.550500000000     0.630180000000     0.0383682  
H352     H      0.485840000000     0.516820000000     0.599360000000     0.0460366  
H353     H      0.489230000000     0.833520000000     0.746380000000     0.0464966  
H354     H      0.463300000000     0.798930000000     0.715970000000     0.0373456  
H355     H      0.507480000000     0.737780000000     0.770080000000     0.0329643  
H356     H      0.532780000000     0.772190000000     0.800090000000     0.0461592  
H357     H      0.494490000000     0.807420000000     0.828430000000     0.046152   
H358     H      0.521180000000     0.837890000000     0.861930000000     0.035957   
H359     H      0.588290000000     0.880270000000     0.800460000000     0.0383791  
H360     H      0.560850000000     0.849460000000     0.766780000000     0.0460511  
H361     H      0.477310000000     0.526780000000     0.819440000000     0.0467448  
H362     H      0.504150000000     0.496540000000     0.853780000000     0.0362062  
H363     H      0.614980000000     0.486820000000     0.807750000000     0.0371489  
H364     H      0.588310000000     0.517460000000     0.773780000000     0.0470444  
H365     H      0.569290000000     0.569460000000     0.776720000000     0.046654   
H366     H      0.542480000000     0.603800000000     0.746470000000     0.0361556  
H367     H      0.431580000000     0.557810000000     0.736800000000     0.0370785  
H368     H      0.458220000000     0.523840000000     0.767450000000     0.0470707  
H369     H      0.228680000000     0.779730000000     0.777360000000     0.0463935  
H370     H      0.255790000000     0.745140000000     0.747520000000     0.0316547  
H371     H      0.366240000000     0.791430000000     0.737220000000     0.0389     
H372     H      0.339310000000     0.825680000000     0.767480000000     0.0473435  
H373     H      0.320250000000     0.823550000000     0.819400000000     0.0470825  
H374     H      0.292920000000     0.853890000000     0.853460000000     0.0378814  
H375     H      0.181750000000     0.862250000000     0.807530000000     0.0364523  
H376     H      0.208920000000     0.831490000000     0.773810000000     0.0462685  
H377     H      0.569020000000     0.779620000000     0.572700000000     0.0466779  
H378     H      0.541450000000     0.745310000000     0.602660000000     0.0315868  
H379     H      0.430750000000     0.791590000000     0.611730000000     0.0381392  
H380     H      0.458170000000     0.825590000000     0.581330000000     0.0465357  
H381     H      0.477870000000     0.822730000000     0.529570000000     0.0466446  
H382     H      0.505420000000     0.852670000000     0.495250000000     0.0314931  
H383     H      0.616130000000     0.861780000000     0.541510000000     0.038142   
H384     H      0.588730000000     0.831390000000     0.575520000000     0.046599   
H385     H      0.647570000000     0.366660000000     0.386870000000     0.206793   
H386     H      0.738530000000     0.924490000000     0.964730000000     0.201805   
H387     H      0.148730000000     0.982810000000     0.386950000000     0.20699    
H388     H      0.058550000000     0.925060000000     0.965130000000     0.202946   
H389     H      0.793370000000     0.398960000000     0.931540000000     0.124118   
H390     H      0.800110000000     0.951940000000     0.421060000000     0.18831    
H391     H      0.685420000000     0.016270000000     0.937260000000     0.146036   
H392     H      0.112830000000     0.020350000000     0.414400000000     0.193287   
H393     H      0.003250000000     0.949950000000     0.419050000000     0.130139   
H394     H      0.996890000000     0.396670000000     0.931930000000     0.184765   
H395     H      0.111380000000     0.333250000000     0.937650000000     0.14728    
H396     H      0.683690000000     0.329280000000     0.413350000000     0.193887   
H397     H      0.069120000000     0.021910000000     0.431680000000     0.204718   
H398     H      0.001050000000     0.365330000000     0.920370000000     0.204765   
H399     H      0.725350000000     0.327450000000     0.932650000000     0.204529   
H400     H      0.795520000000     0.984290000000     0.429270000000     0.204292   
H401     H      0.899230000000     0.136960000000     0.116580000000     0.206834   
H402     H      0.808240000000     0.214840000000     0.174330000000     0.203049   
H403     H      0.897900000000     0.137020000000     0.232710000000     0.206981   
H404     H      0.988220000000     0.215190000000     0.175040000000     0.203396   
H405     H      0.753230000000     0.169610000000     0.149370000000     0.129229   
H406     H      0.746970000000     0.182190000000     0.202580000000     0.185203   
H407     H      0.861200000000     0.187260000000     0.266170000000     0.146482   
H408     H      0.933780000000     0.164410000000     0.270270000000     0.193087   
H409     H      0.043460000000     0.169080000000     0.199970000000     0.130055   
H410     H      0.049910000000     0.181980000000     0.146710000000     0.185297   
H411     H      0.935520000000     0.187720000000     0.083210000000     0.147355   
H412     H      0.863140000000     0.163630000000     0.079160000000     0.193893   
H413     H      0.977410000000     0.181790000000     0.271860000000     0.204581   
H414     H      0.045800000000     0.170400000000     0.115380000000     0.205085   
H415     H      0.820980000000     0.182460000000     0.077370000000     0.205142   
H416     H      0.750770000000     0.169090000000     0.233320000000     0.205196   
H417     H      0.707500000000     0.017560000000     0.075590000000     0.0473031  
H418     H      0.680550000000     0.987290000000     0.041340000000     0.0390663  
H419     H      0.790910000000     0.997690000000     0.994990000000     0.0275703  
H420     H      0.818030000000     0.027530000000     0.029570000000     0.0467694  
H421     H      0.837850000000     0.023920000000     0.081340000000     0.0463389  
H422     H      0.865030000000     0.057640000000     0.112100000000     0.036396   
H423     H      0.753850000000     0.103570000000     0.103780000000     0.0366889  
H424     H      0.726510000000     0.069520000000     0.073440000000     0.0470774  
H425     H      0.792830000000     0.045850000000     0.327180000000     0.0465074  
H426     H      0.767530000000     0.015540000000     0.361320000000     0.0390586  
H427     H      0.711550000000     0.966530000000     0.300010000000     0.0389083  
H428     H      0.737600000000     0.997200000000     0.265690000000     0.0460063  
H429     H      0.809700000000     0.015820000000     0.247450000000     0.0466507  
H430     H      0.835860000000     0.050080000000     0.216770000000     0.0386359  
H431     H      0.778000000000     0.111400000000     0.264840000000     0.0366552  
H432     H      0.752600000000     0.077310000000     0.295170000000     0.0464433  
H433     H      0.737360000000     0.350630000000     0.082650000000     0.0460515  
H434     H      0.710150000000     0.381190000000     0.048630000000     0.0377416  
H435     H      0.766250000000     0.332890000000     0.986770000000     0.0316143  
H436     H      0.792790000000     0.302770000000     0.020600000000     0.046165   
H437     H      0.754660000000     0.270760000000     0.052420000000     0.0459175  
H438     H      0.781120000000     0.236900000000     0.082550000000     0.0337313  
H439     H      0.836630000000     0.298760000000     0.131150000000     0.0375351  
H440     H      0.809510000000     0.332810000000     0.100580000000     0.0460414  
H441     H      0.057470000000     0.996400000000     0.083440000000     0.0460273  
H442     H      0.083390000000     0.965980000000     0.048850000000     0.0377121  
H443     H      0.039320000000     0.020160000000     0.987720000000     0.0315542  
H444     H      0.014020000000     0.050170000000     0.022140000000     0.0466386  
H445     H      0.052310000000     0.078470000000     0.057400000000     0.0464967  
H446     H      0.025640000000     0.111980000000     0.087870000000     0.0359477  
H447     H      0.958400000000     0.050500000000     0.130180000000     0.0382353  
H448     H      0.985840000000     0.016820000000     0.099360000000     0.0462278  
H449     H      0.989230000000     0.333520000000     0.246380000000     0.0465842  
H450     H      0.963300000000     0.298930000000     0.215960000000     0.0371814  
H451     H      0.007480000000     0.237780000000     0.270080000000     0.0329213  
H452     H      0.032780000000     0.272190000000     0.300090000000     0.0463279  
H453     H      0.994500000000     0.307420000000     0.328430000000     0.0457448  
H454     H      0.021180000000     0.337890000000     0.361930000000     0.0361468  
H455     H      0.088290000000     0.380270000000     0.300460000000     0.0384217  
H456     H      0.060840000000     0.349460000000     0.266780000000     0.0460566  
H457     H      0.977310000000     0.026780000000     0.319440000000     0.0464679  
H458     H      0.004150000000     0.996540000000     0.353780000000     0.0359514  
H459     H      0.114980000000     0.986820000000     0.307750000000     0.0371791  
H460     H      0.088310000000     0.017460000000     0.273780000000     0.0469912  
H461     H      0.069290000000     0.069460000000     0.276720000000     0.0468285  
H462     H      0.042480000000     0.103790000000     0.246470000000     0.0360793  
H463     H      0.931580000000     0.057810000000     0.236800000000     0.0369639  
H464     H      0.958220000000     0.023840000000     0.267450000000     0.0472232  
H465     H      0.728680000000     0.279730000000     0.277360000000     0.0463904  
H466     H      0.755790000000     0.245140000000     0.247520000000     0.0316533  
H467     H      0.866240000000     0.291430000000     0.237220000000     0.0389009  
H468     H      0.839310000000     0.325680000000     0.267480000000     0.0473099  
H469     H      0.820250000000     0.323550000000     0.319400000000     0.0471047  
H470     H      0.792920000000     0.353890000000     0.353460000000     0.037883   
H471     H      0.681750000000     0.362250000000     0.307530000000     0.0364495  
H472     H      0.708920000000     0.331490000000     0.273810000000     0.046258   
H473     H      0.069020000000     0.279620000000     0.072700000000     0.0469097  
H474     H      0.041450000000     0.245310000000     0.102660000000     0.0315366  
H475     H      0.930750000000     0.291590000000     0.111730000000     0.0380339  
H476     H      0.958170000000     0.325590000000     0.081330000000     0.0467115  
H477     H      0.977870000000     0.322730000000     0.029570000000     0.0466697  
H478     H      0.005420000000     0.352670000000     0.995250000000     0.0301549  
H479     H      0.116130000000     0.361780000000     0.041510000000     0.0384757  
H480     H      0.088730000000     0.331390000000     0.075520000000     0.0465075  
H481     H      0.647570000000     0.366660000000     0.886870000000     0.20677    
H482     H      0.738530000000     0.924490000000     0.464730000000     0.20212    
H483     H      0.148730000000     0.982810000000     0.886950000000     0.207142   
H484     H      0.058550000000     0.925060000000     0.465130000000     0.203263   
H485     H      0.793370000000     0.398960000000     0.431540000000     0.124225   
H486     H      0.800110000000     0.951940000000     0.921060000000     0.188209   
H487     H      0.685420000000     0.016270000000     0.437260000000     0.146233   
H488     H      0.112830000000     0.020350000000     0.914400000000     0.193171   
H489     H      0.003250000000     0.949950000000     0.919050000000     0.130092   
H490     H      0.996890000000     0.396670000000     0.431930000000     0.184843   
H491     H      0.111380000000     0.333250000000     0.437650000000     0.147472   
H492     H      0.683690000000     0.329280000000     0.913340000000     0.193636   
H493     H      0.069120000000     0.021910000000     0.931680000000     0.204515   
H494     H      0.001050000000     0.365330000000     0.420370000000     0.204964   
H495     H      0.725350000000     0.327450000000     0.432650000000     0.204788   
H496     H      0.795520000000     0.984290000000     0.929270000000     0.204114   
H497     H      0.899230000000     0.136960000000     0.616580000000     0.206801   
H498     H      0.808240000000     0.214840000000     0.674330000000     0.203055   
H499     H      0.897900000000     0.137020000000     0.732710000000     0.206976   
H500     H      0.988220000000     0.215190000000     0.675040000000     0.203402   
H501     H      0.753230000000     0.169610000000     0.649370000000     0.129235   
H502     H      0.746970000000     0.182190000000     0.702580000000     0.185207   
H503     H      0.861200000000     0.187260000000     0.766170000000     0.146464   
H504     H      0.933780000000     0.164410000000     0.770270000000     0.192991   
H505     H      0.043460000000     0.169080000000     0.699970000000     0.130061   
H506     H      0.049910000000     0.181980000000     0.646710000000     0.185289   
H507     H      0.935520000000     0.187720000000     0.583210000000     0.14728    
H508     H      0.863140000000     0.163630000000     0.579160000000     0.193772   
H509     H      0.977410000000     0.181790000000     0.771870000000     0.204386   
H510     H      0.045800000000     0.170400000000     0.615380000000     0.205029   
H511     H      0.820980000000     0.182460000000     0.577370000000     0.205008   
H512     H      0.750770000000     0.169090000000     0.733320000000     0.205189   
H513     H      0.707500000000     0.017560000000     0.575590000000     0.0473763  
H514     H      0.680550000000     0.987290000000     0.541340000000     0.0387695  
H515     H      0.790910000000     0.997690000000     0.494990000000     0.0290572  
H516     H      0.818030000000     0.027530000000     0.529570000000     0.0463306  
H517     H      0.837850000000     0.023920000000     0.581340000000     0.0462683  
H518     H      0.865030000000     0.057640000000     0.612100000000     0.0363767  
H519     H      0.753850000000     0.103570000000     0.603780000000     0.0366513  
H520     H      0.726510000000     0.069520000000     0.573440000000     0.0469815  
H521     H      0.792830000000     0.045850000000     0.827180000000     0.0464593  
H522     H      0.767530000000     0.015540000000     0.861320000000     0.0390005  
H523     H      0.711550000000     0.966530000000     0.800010000000     0.0389201  
H524     H      0.737600000000     0.997200000000     0.765690000000     0.0460194  
H525     H      0.809700000000     0.015820000000     0.747460000000     0.0466714  
H526     H      0.835860000000     0.050080000000     0.716770000000     0.038645   
H527     H      0.778000000000     0.111400000000     0.764840000000     0.0366394  
H528     H      0.752600000000     0.077310000000     0.795170000000     0.0464131  
H529     H      0.737360000000     0.350630000000     0.582650000000     0.0460884  
H530     H      0.710150000000     0.381190000000     0.548630000000     0.037494   
H531     H      0.766250000000     0.332890000000     0.486770000000     0.0330817  
H532     H      0.792790000000     0.302770000000     0.520600000000     0.0456796  
H533     H      0.754660000000     0.270760000000     0.552420000000     0.0457571  
H534     H      0.781120000000     0.236900000000     0.582550000000     0.033655   
H535     H      0.836630000000     0.298760000000     0.631150000000     0.0375372  
H536     H      0.809510000000     0.332810000000     0.600580000000     0.0460168  
H537     H      0.057470000000     0.996400000000     0.583440000000     0.0460608  
H538     H      0.083390000000     0.965980000000     0.548850000000     0.0374595  
H539     H      0.039320000000     0.020160000000     0.487730000000     0.0330311  
H540     H      0.014020000000     0.050170000000     0.522140000000     0.0461541  
H541     H      0.052310000000     0.078470000000     0.557400000000     0.0463565  
H542     H      0.025640000000     0.111980000000     0.587870000000     0.0358712  
H543     H      0.958400000000     0.050500000000     0.630180000000     0.0382284  
H544     H      0.985840000000     0.016820000000     0.599360000000     0.0462017  
H545     H      0.989230000000     0.333520000000     0.746380000000     0.0465852  
H546     H      0.963300000000     0.298930000000     0.715970000000     0.0372056  
H547     H      0.007480000000     0.237780000000     0.770080000000     0.0329088  
H548     H      0.032780000000     0.272190000000     0.800090000000     0.0463302  
H549     H      0.994500000000     0.307420000000     0.828430000000     0.045696   
H550     H      0.021180000000     0.337890000000     0.861930000000     0.0360935  
H551     H      0.088290000000     0.380270000000     0.800460000000     0.0384483  
H552     H      0.060840000000     0.349460000000     0.766780000000     0.0460631  
H553     H      0.977310000000     0.026780000000     0.819440000000     0.0464375  
H554     H      0.004150000000     0.996540000000     0.853780000000     0.0359096  
H555     H      0.114980000000     0.986820000000     0.807750000000     0.0371842  
H556     H      0.088310000000     0.017460000000     0.773780000000     0.0470041  
H557     H      0.069290000000     0.069460000000     0.776720000000     0.0468121  
H558     H      0.042480000000     0.103790000000     0.746470000000     0.0360789  
H559     H      0.931580000000     0.057810000000     0.736800000000     0.036967   
H560     H      0.958220000000     0.023840000000     0.767450000000     0.0472186  
H561     H      0.728680000000     0.279730000000     0.777360000000     0.0463751  
H562     H      0.755790000000     0.245140000000     0.747520000000     0.0316499  
H563     H      0.866240000000     0.291430000000     0.737220000000     0.0389067  
H564     H      0.839310000000     0.325680000000     0.767480000000     0.0473168  
H565     H      0.820250000000     0.323550000000     0.819400000000     0.0470621  
H566     H      0.792920000000     0.353890000000     0.853460000000     0.0378599  
H567     H      0.681750000000     0.362250000000     0.807530000000     0.0364492  
H568     H      0.708920000000     0.331490000000     0.773810000000     0.0462699  
H569     H      0.069020000000     0.279620000000     0.572700000000     0.0468131  
H570     H      0.041450000000     0.245310000000     0.602660000000     0.031496   
H571     H      0.930750000000     0.291590000000     0.611730000000     0.0380165  
H572     H      0.958170000000     0.325590000000     0.581330000000     0.0466453  
H573     H      0.977870000000     0.322730000000     0.529570000000     0.0462177  
H574     H      0.005420000000     0.352670000000     0.495250000000     0.0316527  
H575     H      0.116130000000     0.361780000000     0.541510000000     0.0381905  
H576     H      0.088730000000     0.331390000000     0.575520000000     0.0465681  
H577     H      0.647570000000     0.866660000000     0.386870000000     0.206795   
H578     H      0.738530000000     0.424490000000     0.964730000000     0.201815   
H579     H      0.148730000000     0.482810000000     0.386950000000     0.207062   
H580     H      0.058550000000     0.425060000000     0.965130000000     0.20294    
H581     H      0.793370000000     0.898960000000     0.931540000000     0.124109   
H582     H      0.800110000000     0.451940000000     0.421060000000     0.188342   
H583     H      0.685420000000     0.516270000000     0.937260000000     0.145964   
H584     H      0.112830000000     0.520350000000     0.414400000000     0.193259   
H585     H      0.003250000000     0.449950000000     0.419050000000     0.130155   
H586     H      0.996890000000     0.896670000000     0.931930000000     0.18475    
H587     H      0.111380000000     0.833250000000     0.937650000000     0.147282   
H588     H      0.683690000000     0.829280000000     0.413350000000     0.193889   
H589     H      0.069120000000     0.521910000000     0.431680000000     0.204692   
H590     H      0.001050000000     0.865330000000     0.920370000000     0.204761   
H591     H      0.725350000000     0.827450000000     0.932650000000     0.204531   
H592     H      0.795520000000     0.484290000000     0.429270000000     0.204381   
H593     H      0.899230000000     0.636960000000     0.116580000000     0.206834   
H594     H      0.808240000000     0.714840000000     0.174330000000     0.203048   
H595     H      0.897900000000     0.637010000000     0.232710000000     0.206812   
H596     H      0.988220000000     0.715190000000     0.175040000000     0.203399   
H597     H      0.753230000000     0.669620000000     0.149370000000     0.129271   
H598     H      0.746970000000     0.682190000000     0.202580000000     0.1852     
H599     H      0.861200000000     0.687270000000     0.266170000000     0.146363   
H600     H      0.933780000000     0.664410000000     0.270270000000     0.1931     
H601     H      0.043460000000     0.669070000000     0.199970000000     0.13       
H602     H      0.049910000000     0.681980000000     0.146710000000     0.1853     
H603     H      0.935520000000     0.687720000000     0.083210000000     0.147355   
H604     H      0.863140000000     0.663630000000     0.079160000000     0.193892   
H605     H      0.977410000000     0.681790000000     0.271860000000     0.20458    
H606     H      0.045800000000     0.670400000000     0.115380000000     0.205084   
H607     H      0.820980000000     0.682460000000     0.077370000000     0.205143   
H608     H      0.750770000000     0.669090000000     0.233320000000     0.205193   
H609     H      0.707500000000     0.517560000000     0.075590000000     0.0473028  
H610     H      0.680550000000     0.487290000000     0.041340000000     0.0390844  
H611     H      0.790910000000     0.497690000000     0.994990000000     0.0280183  
H612     H      0.818030000000     0.527530000000     0.029570000000     0.0466441  
H613     H      0.837850000000     0.523920000000     0.081340000000     0.0462934  
H614     H      0.865030000000     0.557640000000     0.112100000000     0.0363804  
H615     H      0.753850000000     0.603570000000     0.103780000000     0.0366853  
H616     H      0.726510000000     0.569520000000     0.073440000000     0.047063   
H617     H      0.792830000000     0.545850000000     0.327180000000     0.0464956  
H618     H      0.767530000000     0.515540000000     0.361320000000     0.0390323  
H619     H      0.711550000000     0.466530000000     0.300010000000     0.0388126  
H620     H      0.737600000000     0.497200000000     0.265690000000     0.0464904  
H621     H      0.809700000000     0.515820000000     0.247450000000     0.0466124  
H622     H      0.835860000000     0.550080000000     0.216770000000     0.0386163  
H623     H      0.778000000000     0.611400000000     0.264840000000     0.0366436  
H624     H      0.752600000000     0.577310000000     0.295170000000     0.0464213  
H625     H      0.737360000000     0.850630000000     0.082650000000     0.0460384  
H626     H      0.710150000000     0.881190000000     0.048630000000     0.0377258  
H627     H      0.766250000000     0.832890000000     0.986770000000     0.0316135  
H628     H      0.792790000000     0.802770000000     0.020600000000     0.0461659  
H629     H      0.754660000000     0.770760000000     0.052420000000     0.0459189  
H630     H      0.781120000000     0.736900000000     0.082550000000     0.0337326  
H631     H      0.836630000000     0.798760000000     0.131150000000     0.037529   
H632     H      0.809510000000     0.832810000000     0.100580000000     0.0460266  
H633     H      0.057470000000     0.496400000000     0.083440000000     0.0465122  
H634     H      0.083390000000     0.465980000000     0.048850000000     0.0376134  
H635     H      0.039320000000     0.520160000000     0.987720000000     0.0315277  
H636     H      0.014020000000     0.550170000000     0.022140000000     0.046634   
H637     H      0.052310000000     0.578470000000     0.057400000000     0.0464487  
H638     H      0.025640000000     0.611980000000     0.087870000000     0.0359771  
H639     H      0.958400000000     0.550500000000     0.130180000000     0.0382257  
H640     H      0.985840000000     0.516820000000     0.099360000000     0.0461391  
H641     H      0.989230000000     0.833520000000     0.246380000000     0.046567   
H642     H      0.963300000000     0.798930000000     0.215960000000     0.0371759  
H643     H      0.007480000000     0.737780000000     0.270080000000     0.0329232  
H644     H      0.032780000000     0.772190000000     0.300090000000     0.0463278  
H645     H      0.994500000000     0.807420000000     0.328430000000     0.0457505  
H646     H      0.021180000000     0.837890000000     0.361930000000     0.0361434  
H647     H      0.088290000000     0.880270000000     0.300460000000     0.0384035  
H648     H      0.060840000000     0.849460000000     0.266780000000     0.0460515  
H649     H      0.977310000000     0.526780000000     0.319440000000     0.046342   
H650     H      0.004150000000     0.496540000000     0.353780000000     0.0364028  
H651     H      0.114980000000     0.486820000000     0.307750000000     0.037196   
H652     H      0.088310000000     0.517460000000     0.273780000000     0.0469903  
H653     H      0.069290000000     0.569460000000     0.276720000000     0.0468162  
H654     H      0.042480000000     0.603800000000     0.246470000000     0.0360673  
H655     H      0.931580000000     0.557810000000     0.236800000000     0.0369473  
H656     H      0.958220000000     0.523840000000     0.267450000000     0.0471799  
H657     H      0.728680000000     0.779730000000     0.277360000000     0.046393   
H658     H      0.755790000000     0.745140000000     0.247520000000     0.0316529  
H659     H      0.866240000000     0.791430000000     0.237220000000     0.0388968  
H660     H      0.839310000000     0.825680000000     0.267480000000     0.0473006  
H661     H      0.820250000000     0.823550000000     0.319400000000     0.0470967  
H662     H      0.792920000000     0.853890000000     0.353460000000     0.0378804  
H663     H      0.681750000000     0.862250000000     0.307530000000     0.0364469  
H664     H      0.708920000000     0.831490000000     0.273810000000     0.0462458  
H665     H      0.069020000000     0.779620000000     0.072700000000     0.0469186  
H666     H      0.041450000000     0.745310000000     0.102660000000     0.0315342  
H667     H      0.930750000000     0.791590000000     0.111730000000     0.0380279  
H668     H      0.958170000000     0.825590000000     0.081330000000     0.046706   
H669     H      0.977870000000     0.822730000000     0.029570000000     0.0466659  
H670     H      0.005420000000     0.852670000000     0.995250000000     0.0301503  
H671     H      0.116130000000     0.861780000000     0.041510000000     0.038471   
H672     H      0.088730000000     0.831390000000     0.075520000000     0.0464997  
H673     H      0.647570000000     0.866660000000     0.886870000000     0.206772   
H674     H      0.738530000000     0.424490000000     0.464730000000     0.202131   
H675     H      0.148730000000     0.482810000000     0.886950000000     0.207214   
H676     H      0.058550000000     0.425060000000     0.465130000000     0.203257   
H677     H      0.793370000000     0.898960000000     0.431540000000     0.124216   
H678     H      0.800110000000     0.451940000000     0.921060000000     0.18824    
H679     H      0.685420000000     0.516270000000     0.437260000000     0.146162   
H680     H      0.112830000000     0.520350000000     0.914400000000     0.193142   
H681     H      0.003250000000     0.449950000000     0.919050000000     0.130108   
H682     H      0.996890000000     0.896670000000     0.431930000000     0.184828   
H683     H      0.111380000000     0.833250000000     0.437650000000     0.147474   
H684     H      0.683690000000     0.829280000000     0.913340000000     0.193638   
H685     H      0.069120000000     0.521910000000     0.931680000000     0.204488   
H686     H      0.001050000000     0.865330000000     0.420370000000     0.204959   
H687     H      0.725350000000     0.827450000000     0.432650000000     0.20479    
H688     H      0.795520000000     0.484290000000     0.929270000000     0.204203   
H689     H      0.899230000000     0.636960000000     0.616580000000     0.206801   
H690     H      0.808240000000     0.714840000000     0.674330000000     0.203053   
H691     H      0.897900000000     0.637010000000     0.732710000000     0.206808   
H692     H      0.988220000000     0.715190000000     0.675040000000     0.203405   
H693     H      0.753230000000     0.669620000000     0.649370000000     0.129277   
H694     H      0.746970000000     0.682190000000     0.702580000000     0.185203   
H695     H      0.861200000000     0.687270000000     0.766170000000     0.146344   
H696     H      0.933780000000     0.664410000000     0.770270000000     0.193005   
H697     H      0.043460000000     0.669070000000     0.699970000000     0.130005   
H698     H      0.049910000000     0.681980000000     0.646710000000     0.185293   
H699     H      0.935520000000     0.687720000000     0.583210000000     0.147281   
H700     H      0.863140000000     0.663630000000     0.579160000000     0.193771   
H701     H      0.977410000000     0.681790000000     0.771870000000     0.204385   
H702     H      0.045800000000     0.670400000000     0.615380000000     0.205028   
H703     H      0.820980000000     0.682460000000     0.577370000000     0.205008   
H704     H      0.750770000000     0.669090000000     0.733320000000     0.205186   
H705     H      0.707500000000     0.517560000000     0.575590000000     0.047376   
H706     H      0.680550000000     0.487290000000     0.541340000000     0.0387877  
H707     H      0.790910000000     0.497690000000     0.494990000000     0.029508   
H708     H      0.818030000000     0.527530000000     0.529570000000     0.0462042  
H709     H      0.837850000000     0.523920000000     0.581340000000     0.0462225  
H710     H      0.865030000000     0.557640000000     0.612100000000     0.036361   
H711     H      0.753850000000     0.603570000000     0.603780000000     0.0366476  
H712     H      0.726510000000     0.569520000000     0.573440000000     0.0469669  
H713     H      0.792830000000     0.545850000000     0.827180000000     0.0464475  
H714     H      0.767530000000     0.515540000000     0.861320000000     0.0389739  
H715     H      0.711550000000     0.466530000000     0.800010000000     0.038824   
H716     H      0.737600000000     0.497200000000     0.765690000000     0.046505   
H717     H      0.809700000000     0.515820000000     0.747460000000     0.0466327  
H718     H      0.835860000000     0.550080000000     0.716770000000     0.0386253  
H719     H      0.778000000000     0.611400000000     0.764840000000     0.0366279  
H720     H      0.752600000000     0.577310000000     0.795170000000     0.0463909  
H721     H      0.737360000000     0.850630000000     0.582650000000     0.0460752  
H722     H      0.710150000000     0.881190000000     0.548630000000     0.0374782  
H723     H      0.766250000000     0.832890000000     0.486770000000     0.0330814  
H724     H      0.792790000000     0.802770000000     0.520600000000     0.0456803  
H725     H      0.754660000000     0.770760000000     0.552420000000     0.0457585  
H726     H      0.781120000000     0.736900000000     0.582550000000     0.0336562  
H727     H      0.836630000000     0.798760000000     0.631150000000     0.0375311  
H728     H      0.809510000000     0.832810000000     0.600580000000     0.0460019  
H729     H      0.057470000000     0.496400000000     0.583440000000     0.0465477  
H730     H      0.083390000000     0.465980000000     0.548850000000     0.0373606  
H731     H      0.039320000000     0.520160000000     0.487730000000     0.033009   
H732     H      0.014020000000     0.550170000000     0.522140000000     0.0461483  
H733     H      0.052310000000     0.578470000000     0.557400000000     0.0463082  
H734     H      0.025640000000     0.611980000000     0.587870000000     0.0359005  
H735     H      0.958400000000     0.550500000000     0.630180000000     0.0382187  
H736     H      0.985840000000     0.516820000000     0.599360000000     0.0461126  
H737     H      0.989230000000     0.833520000000     0.746380000000     0.0465679  
H738     H      0.963300000000     0.798930000000     0.715970000000     0.0372001  
H739     H      0.007480000000     0.737780000000     0.770080000000     0.0329108  
H740     H      0.032780000000     0.772190000000     0.800090000000     0.0463301  
H741     H      0.994500000000     0.807420000000     0.828430000000     0.0457017  
H742     H      0.021180000000     0.837890000000     0.861930000000     0.0360901  
H743     H      0.088290000000     0.880270000000     0.800460000000     0.03843    
H744     H      0.060840000000     0.849460000000     0.766780000000     0.046058   
H745     H      0.977310000000     0.526780000000     0.819440000000     0.0463111  
H746     H      0.004150000000     0.496540000000     0.853780000000     0.0363623  
H747     H      0.114980000000     0.486820000000     0.807750000000     0.0372011  
H748     H      0.088310000000     0.517460000000     0.773780000000     0.0470031  
H749     H      0.069290000000     0.569460000000     0.776720000000     0.0467998  
H750     H      0.042480000000     0.603800000000     0.746470000000     0.0360669  
H751     H      0.931580000000     0.557810000000     0.736800000000     0.0369503  
H752     H      0.958220000000     0.523840000000     0.767450000000     0.0471751  
H753     H      0.728680000000     0.779730000000     0.777360000000     0.0463777  
H754     H      0.755790000000     0.745140000000     0.747520000000     0.0316495  
H755     H      0.866240000000     0.791430000000     0.737220000000     0.0389027  
H756     H      0.839310000000     0.825680000000     0.767480000000     0.0473074  
H757     H      0.820250000000     0.823550000000     0.819400000000     0.047054   
H758     H      0.792920000000     0.853890000000     0.853460000000     0.0378572  
H759     H      0.681750000000     0.862250000000     0.807530000000     0.0364466  
H760     H      0.708920000000     0.831490000000     0.773810000000     0.0462577  
H761     H      0.069020000000     0.779620000000     0.572700000000     0.0468219  
H762     H      0.041450000000     0.745310000000     0.602660000000     0.0314936  
H763     H      0.930750000000     0.791590000000     0.611730000000     0.0380105  
H764     H      0.958170000000     0.825590000000     0.581330000000     0.0466396  
H765     H      0.977870000000     0.822730000000     0.529570000000     0.0462138  
H766     H      0.005420000000     0.852670000000     0.495250000000     0.0316485  
H767     H      0.116130000000     0.861780000000     0.541510000000     0.0381857  
H768     H      0.088730000000     0.831390000000     0.575520000000     0.0465603  
O1       O      0.569360000000     0.371110000000     0.969900000000    -0.351281   
O2       O      0.607410000000     0.393990000000     0.000980000000    -0.340835   
O3       O      0.228810000000     0.372020000000     0.378960000000    -0.344877   
O4       O      0.189730000000     0.394270000000     0.347970000000    -0.343008   
O5       O      0.226490000000     0.370880000000     0.969270000000    -0.353313   
O6       O      0.191360000000     0.394750000000     0.000980000000    -0.340247   
O7       O      0.566970000000     0.372730000000     0.379650000000    -0.348537   
O8       O      0.604090000000     0.395420000000     0.348040000000    -0.340829   
O9       O      0.591600000000     0.337940000000     0.923410000000    -0.339899   
O10      O      0.513640000000     0.381960000000     0.425810000000    -0.515364   
O11      O      0.205140000000     0.338040000000     0.923340000000    -0.509467   
O12      O      0.283310000000     0.381510000000     0.424860000000    -0.333021   
O13      O      0.648280000000     0.382100000000     0.950920000000    -0.465762   
O14      O      0.647840000000     0.382280000000     0.398260000000    -0.610761   
O15      O      0.567930000000     0.977680000000     0.379270000000    -0.347442   
O16      O      0.606500000000     0.955190000000     0.348160000000    -0.343475   
O17      O      0.227280000000     0.978540000000     0.969640000000    -0.352972   
O18      O      0.189760000000     0.955430000000     0.000830000000    -0.34102    
O19      O      0.228650000000     0.977180000000     0.379260000000    -0.345456   
O20      O      0.191650000000     0.954120000000     0.347840000000    -0.340332   
O21      O      0.571650000000     0.979100000000     0.969710000000    -0.348991   
O22      O      0.606440000000     0.954740000000     0.001210000000    -0.339979   
O23      O      0.590540000000     0.011450000000     0.423430000000    -0.508781   
O24      O      0.513340000000     0.967420000000     0.425680000000    -0.337712   
O25      O      0.205670000000     0.011570000000     0.423310000000    -0.338925   
O26      O      0.283120000000     0.967240000000     0.425080000000    -0.517298   
O27      O      0.148600000000     0.967160000000     0.398300000000    -0.610827   
O28      O      0.148700000000     0.967300000000     0.950930000000    -0.465599   
O29      O      0.581350000000     0.424880000000     0.395640000000    -0.475812   
O30      O      0.215010000000     0.924500000000     0.953040000000    -0.622439   
O31      O      0.581960000000     0.924980000000     0.953340000000    -0.622213   
O32      O      0.215120000000     0.424600000000     0.395350000000    -0.474847   
O33      O      0.477490000000     0.219960000000     0.121090000000    -0.351717   
O34      O      0.439430000000     0.251060000000     0.143940000000    -0.343202   
O35      O      0.317990000000     0.129070000000     0.121880000000    -0.347339   
O36      O      0.357010000000     0.098060000000     0.144160000000    -0.343168   
O37      O      0.320490000000     0.219390000000     0.120700000000    -0.351138   
O38      O      0.355530000000     0.251090000000     0.144640000000    -0.342559   
O39      O      0.479810000000     0.129710000000     0.122690000000    -0.348434   
O40      O      0.442640000000     0.098100000000     0.145350000000    -0.340784   
O41      O      0.455310000000     0.173480000000     0.087910000000    -0.339516   
O42      O      0.533180000000     0.175860000000     0.131990000000    -0.515367   
O43      O      0.341470000000     0.173400000000     0.087940000000    -0.50975    
O44      O      0.263490000000     0.175080000000     0.131540000000    -0.336027   
O45      O      0.398550000000     0.201000000000     0.132030000000    -0.465794   
O46      O      0.398950000000     0.148350000000     0.132200000000    -0.61077    
O47      O      0.478710000000     0.129320000000     0.227630000000    -0.347447   
O48      O      0.440140000000     0.098210000000     0.205130000000    -0.343435   
O49      O      0.319430000000     0.219740000000     0.228420000000    -0.351159   
O50      O      0.356990000000     0.250930000000     0.205330000000    -0.343166   
O51      O      0.317950000000     0.129340000000     0.226980000000    -0.34813    
O52      O      0.355010000000     0.097910000000     0.203980000000    -0.340628   
O53      O      0.475060000000     0.219770000000     0.229050000000    -0.349485   
O54      O      0.440320000000     0.251290000000     0.204680000000    -0.342345   
O55      O      0.456050000000     0.173490000000     0.261390000000    -0.509003   
O56      O      0.533340000000     0.175720000000     0.217430000000    -0.337598   
O57      O      0.340920000000     0.173340000000     0.261430000000    -0.33909    
O58      O      0.263550000000     0.175360000000     0.217050000000    -0.516148   
O59      O      0.398060000000     0.148370000000     0.217060000000    -0.610766   
O60      O      0.398000000000     0.201010000000     0.217210000000    -0.465527   
O61      O      0.465380000000     0.145700000000     0.174840000000    -0.475925   
O62      O      0.331760000000     0.203150000000     0.174370000000    -0.622496   
O63      O      0.464810000000     0.203410000000     0.174940000000    -0.622473   
O64      O      0.331610000000     0.145440000000     0.174480000000    -0.475717   
O65      O      0.569360000000     0.371110000000     0.469890000000    -0.351751   
O66      O      0.607410000000     0.393990000000     0.500980000000    -0.343231   
O67      O      0.228810000000     0.372020000000     0.878960000000    -0.344874   
O68      O      0.189730000000     0.394270000000     0.847970000000    -0.342989   
O69      O      0.226490000000     0.370880000000     0.469270000000    -0.353866   
O70      O      0.191360000000     0.394750000000     0.500980000000    -0.342696   
O71      O      0.566970000000     0.372730000000     0.879650000000    -0.348548   
O72      O      0.604090000000     0.395420000000     0.848040000000    -0.340824   
O73      O      0.591600000000     0.337940000000     0.423410000000    -0.339788   
O74      O      0.513640000000     0.381960000000     0.925820000000    -0.515373   
O75      O      0.205140000000     0.338040000000     0.423340000000    -0.509638   
O76      O      0.283310000000     0.381510000000     0.924860000000    -0.333149   
O77      O      0.648280000000     0.382100000000     0.450920000000    -0.465761   
O78      O      0.647840000000     0.382280000000     0.898260000000    -0.61069    
O79      O      0.567930000000     0.977680000000     0.879270000000    -0.347442   
O80      O      0.606500000000     0.955190000000     0.848160000000    -0.343462   
O81      O      0.227280000000     0.978540000000     0.469640000000    -0.353523   
O82      O      0.189760000000     0.955430000000     0.500830000000    -0.343481   
O83      O      0.228650000000     0.977180000000     0.879260000000    -0.345456   
O84      O      0.191650000000     0.954120000000     0.847840000000    -0.34032    
O85      O      0.571650000000     0.979100000000     0.469710000000    -0.34954    
O86      O      0.606440000000     0.954740000000     0.501210000000    -0.342426   
O87      O      0.590540000000     0.011450000000     0.923430000000    -0.508785   
O88      O      0.513340000000     0.967420000000     0.925680000000    -0.337882   
O89      O      0.205670000000     0.011570000000     0.923310000000    -0.339041   
O90      O      0.283120000000     0.967240000000     0.925080000000    -0.517291   
O91      O      0.148600000000     0.967160000000     0.898290000000    -0.610865   
O92      O      0.148700000000     0.967300000000     0.450930000000    -0.465584   
O93      O      0.581350000000     0.424880000000     0.895640000000    -0.475756   
O94      O      0.215010000000     0.924500000000     0.453040000000    -0.622642   
O95      O      0.581960000000     0.924980000000     0.453340000000    -0.622416   
O96      O      0.215120000000     0.424600000000     0.895350000000    -0.474787   
O97      O      0.477490000000     0.219960000000     0.621090000000    -0.351746   
O98      O      0.439430000000     0.251060000000     0.643940000000    -0.343198   
O99      O      0.317990000000     0.129070000000     0.621880000000    -0.347366   
O100     O      0.357010000000     0.098060000000     0.644160000000    -0.343167   
O101     O      0.320490000000     0.219390000000     0.620700000000    -0.351156   
O102     O      0.355530000000     0.251090000000     0.644640000000    -0.342557   
O103     O      0.479810000000     0.129710000000     0.622690000000    -0.34845    
O104     O      0.442640000000     0.098100000000     0.645350000000    -0.340688   
O105     O      0.455310000000     0.173480000000     0.587910000000    -0.339622   
O106     O      0.533180000000     0.175860000000     0.631990000000    -0.515357   
O107     O      0.341470000000     0.173400000000     0.587940000000    -0.509731   
O108     O      0.263490000000     0.175080000000     0.631540000000    -0.336063   
O109     O      0.398550000000     0.201000000000     0.632030000000    -0.465804   
O110     O      0.398950000000     0.148350000000     0.632200000000    -0.610761   
O111     O      0.478710000000     0.129320000000     0.727630000000    -0.347448   
O112     O      0.440140000000     0.098210000000     0.705130000000    -0.343427   
O113     O      0.319430000000     0.219740000000     0.728420000000    -0.351162   
O114     O      0.356990000000     0.250930000000     0.705330000000    -0.343158   
O115     O      0.317950000000     0.129340000000     0.726980000000    -0.34813    
O116     O      0.355010000000     0.097910000000     0.703980000000    -0.340621   
O117     O      0.475060000000     0.219770000000     0.729050000000    -0.349476   
O118     O      0.440320000000     0.251290000000     0.704680000000    -0.342335   
O119     O      0.456050000000     0.173490000000     0.761390000000    -0.508793   
O120     O      0.533340000000     0.175720000000     0.717430000000    -0.337591   
O121     O      0.340920000000     0.173340000000     0.761430000000    -0.339113   
O122     O      0.263550000000     0.175360000000     0.717050000000    -0.516144   
O123     O      0.398060000000     0.148370000000     0.717060000000    -0.610764   
O124     O      0.398000000000     0.201010000000     0.717210000000    -0.465528   
O125     O      0.465380000000     0.145700000000     0.674840000000    -0.47591    
O126     O      0.331760000000     0.203150000000     0.674370000000    -0.622492   
O127     O      0.464810000000     0.203410000000     0.674940000000    -0.622469   
O128     O      0.331610000000     0.145440000000     0.674480000000    -0.475708   
O129     O      0.569360000000     0.871110000000     0.969900000000    -0.35128    
O130     O      0.607410000000     0.893990000000     0.000980000000    -0.340839   
O131     O      0.228810000000     0.872020000000     0.378960000000    -0.344877   
O132     O      0.189730000000     0.894270000000     0.347970000000    -0.343012   
O133     O      0.226490000000     0.870880000000     0.969270000000    -0.353314   
O134     O      0.191360000000     0.894750000000     0.000980000000    -0.340251   
O135     O      0.566970000000     0.872730000000     0.379650000000    -0.348537   
O136     O      0.604090000000     0.895420000000     0.348040000000    -0.340833   
O137     O      0.591600000000     0.837940000000     0.923410000000    -0.339895   
O138     O      0.513640000000     0.881960000000     0.425810000000    -0.515362   
O139     O      0.205140000000     0.838040000000     0.923340000000    -0.509467   
O140     O      0.283310000000     0.881510000000     0.424860000000    -0.333025   
O141     O      0.648280000000     0.882100000000     0.950920000000    -0.465758   
O142     O      0.647840000000     0.882280000000     0.398260000000    -0.610758   
O143     O      0.567930000000     0.477680000000     0.379270000000    -0.347367   
O144     O      0.606500000000     0.455190000000     0.348160000000    -0.343433   
O145     O      0.227280000000     0.478540000000     0.969640000000    -0.352859   
O146     O      0.189760000000     0.455430000000     0.000830000000    -0.340971   
O147     O      0.228650000000     0.477180000000     0.379260000000    -0.345351   
O148     O      0.191650000000     0.454120000000     0.347840000000    -0.340317   
O149     O      0.571650000000     0.479100000000     0.969710000000    -0.348919   
O150     O      0.606440000000     0.454740000000     0.001210000000    -0.339968   
O151     O      0.590540000000     0.511450000000     0.423430000000    -0.509094   
O152     O      0.513340000000     0.467420000000     0.425680000000    -0.337658   
O153     O      0.205670000000     0.511570000000     0.423310000000    -0.339139   
O154     O      0.283120000000     0.467240000000     0.425080000000    -0.517303   
O155     O      0.148600000000     0.467160000000     0.398300000000    -0.610849   
O156     O      0.148700000000     0.467300000000     0.950930000000    -0.465572   
O157     O      0.581350000000     0.924880000000     0.395640000000    -0.475859   
O158     O      0.215010000000     0.424500000000     0.953040000000    -0.622457   
O159     O      0.581960000000     0.424980000000     0.953340000000    -0.622162   
O160     O      0.215120000000     0.924600000000     0.395350000000    -0.474836   
O161     O      0.477490000000     0.719960000000     0.121090000000    -0.351717   
O162     O      0.439430000000     0.751060000000     0.143940000000    -0.343204   
O163     O      0.317990000000     0.629070000000     0.121880000000    -0.347336   
O164     O      0.357010000000     0.598060000000     0.144160000000    -0.343173   
O165     O      0.320490000000     0.719390000000     0.120700000000    -0.351138   
O166     O      0.355530000000     0.751090000000     0.144640000000    -0.342559   
O167     O      0.479810000000     0.629710000000     0.122690000000    -0.348428   
O168     O      0.442640000000     0.598100000000     0.145350000000    -0.340782   
O169     O      0.455310000000     0.673480000000     0.087910000000    -0.339516   
O170     O      0.533180000000     0.675860000000     0.131990000000    -0.515367   
O171     O      0.341470000000     0.673400000000     0.087940000000    -0.509749   
O172     O      0.263490000000     0.675080000000     0.131540000000    -0.33607    
O173     O      0.398550000000     0.701000000000     0.132030000000    -0.465793   
O174     O      0.398950000000     0.648350000000     0.132200000000    -0.610768   
O175     O      0.478710000000     0.629320000000     0.227630000000    -0.34745    
O176     O      0.440140000000     0.598210000000     0.205130000000    -0.343444   
O177     O      0.319430000000     0.719740000000     0.228420000000    -0.351159   
O178     O      0.356990000000     0.750930000000     0.205330000000    -0.343167   
O179     O      0.317950000000     0.629340000000     0.226980000000    -0.348142   
O180     O      0.355010000000     0.597910000000     0.203980000000    -0.34065    
O181     O      0.475060000000     0.719770000000     0.229050000000    -0.349483   
O182     O      0.440320000000     0.751290000000     0.204680000000    -0.342346   
O183     O      0.456050000000     0.673490000000     0.261390000000    -0.508999   
O184     O      0.533340000000     0.675720000000     0.217430000000    -0.337543   
O185     O      0.340920000000     0.673340000000     0.261430000000    -0.338956   
O186     O      0.263550000000     0.675360000000     0.217050000000    -0.516147   
O187     O      0.398060000000     0.648370000000     0.217060000000    -0.610591   
O188     O      0.398000000000     0.701010000000     0.217210000000    -0.465523   
O189     O      0.465380000000     0.645700000000     0.174840000000    -0.475927   
O190     O      0.331760000000     0.703150000000     0.174370000000    -0.622496   
O191     O      0.464810000000     0.703410000000     0.174940000000    -0.622472   
O192     O      0.331610000000     0.645440000000     0.174480000000    -0.475717   
O193     O      0.569360000000     0.871110000000     0.469890000000    -0.35175    
O194     O      0.607410000000     0.893990000000     0.500980000000    -0.343236   
O195     O      0.228810000000     0.872020000000     0.878960000000    -0.344874   
O196     O      0.189730000000     0.894270000000     0.847970000000    -0.342993   
O197     O      0.226490000000     0.870880000000     0.469270000000    -0.353866   
O198     O      0.191360000000     0.894750000000     0.500980000000    -0.342701   
O199     O      0.566970000000     0.872730000000     0.879650000000    -0.348548   
O200     O      0.604090000000     0.895420000000     0.848040000000    -0.340829   
O201     O      0.591600000000     0.837940000000     0.423410000000    -0.339785   
O202     O      0.513640000000     0.881960000000     0.925820000000    -0.515371   
O203     O      0.205140000000     0.838040000000     0.423340000000    -0.509637   
O204     O      0.283310000000     0.881510000000     0.924860000000    -0.333153   
O205     O      0.648280000000     0.882100000000     0.450920000000    -0.465756   
O206     O      0.647840000000     0.882280000000     0.898260000000    -0.610687   
O207     O      0.567930000000     0.477680000000     0.879270000000    -0.347367   
O208     O      0.606500000000     0.455190000000     0.848160000000    -0.343419   
O209     O      0.227280000000     0.478540000000     0.469640000000    -0.353409   
O210     O      0.189760000000     0.455430000000     0.500830000000    -0.343432   
O211     O      0.228650000000     0.477180000000     0.879260000000    -0.345351   
O212     O      0.191650000000     0.454120000000     0.847840000000    -0.340305   
O213     O      0.571650000000     0.479100000000     0.469710000000    -0.349468   
O214     O      0.606440000000     0.454740000000     0.501210000000    -0.342415   
O215     O      0.590540000000     0.511450000000     0.923430000000    -0.509098   
O216     O      0.513340000000     0.467420000000     0.925680000000    -0.337828   
O217     O      0.205670000000     0.511570000000     0.923310000000    -0.339256   
O218     O      0.283120000000     0.467240000000     0.925080000000    -0.517297   
O219     O      0.148600000000     0.467160000000     0.898290000000    -0.610887   
O220     O      0.148700000000     0.467300000000     0.450930000000    -0.465557   
O221     O      0.581350000000     0.924880000000     0.895640000000    -0.475804   
O222     O      0.215010000000     0.424500000000     0.453040000000    -0.62266    
O223     O      0.581960000000     0.424980000000     0.453340000000    -0.622365   
O224     O      0.215120000000     0.924600000000     0.895350000000    -0.474776   
O225     O      0.477490000000     0.719960000000     0.621090000000    -0.351745   
O226     O      0.439430000000     0.751060000000     0.643940000000    -0.3432     
O227     O      0.317990000000     0.629070000000     0.621880000000    -0.347364   
O228     O      0.357010000000     0.598060000000     0.644160000000    -0.343172   
O229     O      0.320490000000     0.719390000000     0.620700000000    -0.351156   
O230     O      0.355530000000     0.751090000000     0.644640000000    -0.342557   
O231     O      0.479810000000     0.629710000000     0.622690000000    -0.348444   
O232     O      0.442640000000     0.598100000000     0.645350000000    -0.340687   
O233     O      0.455310000000     0.673480000000     0.587910000000    -0.339622   
O234     O      0.533180000000     0.675860000000     0.631990000000    -0.515357   
O235     O      0.341470000000     0.673400000000     0.587940000000    -0.50973    
O236     O      0.263490000000     0.675080000000     0.631540000000    -0.336107   
O237     O      0.398550000000     0.701000000000     0.632030000000    -0.465804   
O238     O      0.398950000000     0.648350000000     0.632200000000    -0.610759   
O239     O      0.478710000000     0.629320000000     0.727630000000    -0.347452   
O240     O      0.440140000000     0.598210000000     0.705130000000    -0.343436   
O241     O      0.319430000000     0.719740000000     0.728420000000    -0.351162   
O242     O      0.356990000000     0.750930000000     0.705330000000    -0.343159   
O243     O      0.317950000000     0.629340000000     0.726980000000    -0.348142   
O244     O      0.355010000000     0.597910000000     0.703980000000    -0.340643   
O245     O      0.475060000000     0.719770000000     0.729050000000    -0.349473   
O246     O      0.440320000000     0.751290000000     0.704680000000    -0.342335   
O247     O      0.456050000000     0.673490000000     0.761390000000    -0.508789   
O248     O      0.533340000000     0.675720000000     0.717430000000    -0.337536   
O249     O      0.340920000000     0.673340000000     0.761430000000    -0.33898    
O250     O      0.263550000000     0.675360000000     0.717050000000    -0.516143   
O251     O      0.398060000000     0.648370000000     0.717060000000    -0.610589   
O252     O      0.398000000000     0.701010000000     0.717210000000    -0.465524   
O253     O      0.465380000000     0.645700000000     0.674840000000    -0.475912   
O254     O      0.331760000000     0.703150000000     0.674370000000    -0.622492   
O255     O      0.464810000000     0.703410000000     0.674940000000    -0.622467   
O256     O      0.331610000000     0.645440000000     0.674480000000    -0.475708   
O257     O      0.069360000000     0.371110000000     0.969900000000    -0.351251   
O258     O      0.107410000000     0.393990000000     0.000980000000    -0.340843   
O259     O      0.728810000000     0.372020000000     0.378960000000    -0.344884   
O260     O      0.689730000000     0.394270000000     0.347970000000    -0.34301    
O261     O      0.726490000000     0.370880000000     0.969270000000    -0.353324   
O262     O      0.691360000000     0.394750000000     0.000980000000    -0.340284   
O263     O      0.066970000000     0.372730000000     0.379650000000    -0.348508   
O264     O      0.104090000000     0.395420000000     0.348040000000    -0.340812   
O265     O      0.091600000000     0.337940000000     0.923410000000    -0.339877   
O266     O      0.013640000000     0.381960000000     0.425810000000    -0.514977   
O267     O      0.705140000000     0.338040000000     0.923340000000    -0.509465   
O268     O      0.783310000000     0.381510000000     0.424860000000    -0.333046   
O269     O      0.148280000000     0.382100000000     0.950920000000    -0.465764   
O270     O      0.147840000000     0.382280000000     0.398260000000    -0.610766   
O271     O      0.067930000000     0.977680000000     0.379270000000    -0.347376   
O272     O      0.106510000000     0.955190000000     0.348160000000    -0.343406   
O273     O      0.727280000000     0.978540000000     0.969640000000    -0.352981   
O274     O      0.689760000000     0.955430000000     0.000830000000    -0.341053   
O275     O      0.728650000000     0.977180000000     0.379260000000    -0.345459   
O276     O      0.691650000000     0.954120000000     0.347840000000    -0.34034    
O277     O      0.071650000000     0.979100000000     0.969710000000    -0.348977   
O278     O      0.106440000000     0.954740000000     0.001210000000    -0.33994    
O279     O      0.090540000000     0.011450000000     0.423430000000    -0.508783   
O280     O      0.013340000000     0.967420000000     0.425680000000    -0.33766    
O281     O      0.705670000000     0.011570000000     0.423310000000    -0.338933   
O282     O      0.783120000000     0.967240000000     0.425080000000    -0.517295   
O283     O      0.648600000000     0.967160000000     0.398300000000    -0.610822   
O284     O      0.648700000000     0.967300000000     0.950930000000    -0.465599   
O285     O      0.081350000000     0.424880000000     0.395640000000    -0.475797   
O286     O      0.715000000000     0.924500000000     0.953040000000    -0.622394   
O287     O      0.081960000000     0.924980000000     0.953340000000    -0.622261   
O288     O      0.715120000000     0.424600000000     0.395350000000    -0.47485    
O289     O      0.977490000000     0.219960000000     0.121090000000    -0.35188    
O290     O      0.939430000000     0.251060000000     0.143940000000    -0.343273   
O291     O      0.817990000000     0.129070000000     0.121880000000    -0.347314   
O292     O      0.857020000000     0.098060000000     0.144160000000    -0.343124   
O293     O      0.820490000000     0.219390000000     0.120700000000    -0.351142   
O294     O      0.855530000000     0.251090000000     0.144640000000    -0.34256    
O295     O      0.979810000000     0.129710000000     0.122690000000    -0.348597   
O296     O      0.942640000000     0.098100000000     0.145350000000    -0.340845   
O297     O      0.955300000000     0.173480000000     0.087910000000    -0.339686   
O298     O      0.033180000000     0.175860000000     0.131990000000    -0.515181   
O299     O      0.841470000000     0.173400000000     0.087940000000    -0.509747   
O300     O      0.763490000000     0.175080000000     0.131540000000    -0.336036   
O301     O      0.898550000000     0.201000000000     0.132030000000    -0.465779   
O302     O      0.898950000000     0.148350000000     0.132200000000    -0.610748   
O303     O      0.978710000000     0.129320000000     0.227630000000    -0.347584   
O304     O      0.940140000000     0.098210000000     0.205130000000    -0.343501   
O305     O      0.819430000000     0.219740000000     0.228420000000    -0.351162   
O306     O      0.856990000000     0.250930000000     0.205330000000    -0.343165   
O307     O      0.817960000000     0.129340000000     0.226980000000    -0.348181   
O308     O      0.855010000000     0.097910000000     0.203980000000    -0.340643   
O309     O      0.975060000000     0.219770000000     0.229050000000    -0.349623   
O310     O      0.940320000000     0.251290000000     0.204680000000    -0.342412   
O311     O      0.956050000000     0.173490000000     0.261390000000    -0.509      
O312     O      0.033340000000     0.175720000000     0.217430000000    -0.337316   
O313     O      0.840920000000     0.173340000000     0.261430000000    -0.339099   
O314     O      0.763550000000     0.175360000000     0.217050000000    -0.51615    
O315     O      0.898060000000     0.148370000000     0.217060000000    -0.610796   
O316     O      0.898000000000     0.201010000000     0.217210000000    -0.465559   
O317     O      0.965380000000     0.145700000000     0.174840000000    -0.475963   
O318     O      0.831760000000     0.203150000000     0.174370000000    -0.622495   
O319     O      0.964810000000     0.203410000000     0.174940000000    -0.622615   
O320     O      0.831610000000     0.145440000000     0.174480000000    -0.47572    
O321     O      0.069360000000     0.371110000000     0.469890000000    -0.351721   
O322     O      0.107410000000     0.393990000000     0.500980000000    -0.343239   
O323     O      0.728810000000     0.372020000000     0.878960000000    -0.344881   
O324     O      0.689730000000     0.394270000000     0.847970000000    -0.342992   
O325     O      0.726490000000     0.370880000000     0.469270000000    -0.353877   
O326     O      0.691360000000     0.394750000000     0.500980000000    -0.342733   
O327     O      0.066970000000     0.372730000000     0.879650000000    -0.34852    
O328     O      0.104090000000     0.395420000000     0.848040000000    -0.340808   
O329     O      0.091600000000     0.337940000000     0.423410000000    -0.339767   
O330     O      0.013640000000     0.381960000000     0.925820000000    -0.514986   
O331     O      0.705140000000     0.338040000000     0.423340000000    -0.509635   
O332     O      0.783310000000     0.381510000000     0.924860000000    -0.333174   
O333     O      0.148280000000     0.382100000000     0.450920000000    -0.465763   
O334     O      0.147840000000     0.382280000000     0.898260000000    -0.610695   
O335     O      0.067930000000     0.977680000000     0.879270000000    -0.347376   
O336     O      0.106510000000     0.955190000000     0.848160000000    -0.343393   
O337     O      0.727280000000     0.978540000000     0.469640000000    -0.353531   
O338     O      0.689760000000     0.955430000000     0.500830000000    -0.343514   
O339     O      0.728650000000     0.977180000000     0.879260000000    -0.345459   
O340     O      0.691650000000     0.954120000000     0.847840000000    -0.340328   
O341     O      0.071650000000     0.979100000000     0.469710000000    -0.349526   
O342     O      0.106440000000     0.954740000000     0.501210000000    -0.342386   
O343     O      0.090540000000     0.011450000000     0.923430000000    -0.508787   
O344     O      0.013340000000     0.967420000000     0.925680000000    -0.337829   
O345     O      0.705670000000     0.011570000000     0.923310000000    -0.339049   
O346     O      0.783120000000     0.967240000000     0.925080000000    -0.517289   
O347     O      0.648600000000     0.967160000000     0.898290000000    -0.61086    
O348     O      0.648700000000     0.967300000000     0.450930000000    -0.465584   
O349     O      0.081350000000     0.424880000000     0.895640000000    -0.475742   
O350     O      0.715000000000     0.924500000000     0.453040000000    -0.622597   
O351     O      0.081960000000     0.924980000000     0.453340000000    -0.622464   
O352     O      0.715120000000     0.424600000000     0.895350000000    -0.474789   
O353     O      0.977490000000     0.219960000000     0.621090000000    -0.351908   
O354     O      0.939430000000     0.251060000000     0.643940000000    -0.343269   
O355     O      0.817990000000     0.129070000000     0.621880000000    -0.347341   
O356     O      0.857020000000     0.098060000000     0.644160000000    -0.343123   
O357     O      0.820490000000     0.219390000000     0.620700000000    -0.35116    
O358     O      0.855530000000     0.251090000000     0.644640000000    -0.342558   
O359     O      0.979810000000     0.129710000000     0.622690000000    -0.348614   
O360     O      0.942640000000     0.098100000000     0.645350000000    -0.340749   
O361     O      0.955300000000     0.173480000000     0.587910000000    -0.339791   
O362     O      0.033180000000     0.175860000000     0.631990000000    -0.515171   
O363     O      0.841470000000     0.173400000000     0.587940000000    -0.509728   
O364     O      0.763490000000     0.175080000000     0.631540000000    -0.336073   
O365     O      0.898550000000     0.201000000000     0.632030000000    -0.465789   
O366     O      0.898950000000     0.148350000000     0.632200000000    -0.610739   
O367     O      0.978710000000     0.129320000000     0.727630000000    -0.347586   
O368     O      0.940140000000     0.098210000000     0.705130000000    -0.343492   
O369     O      0.819430000000     0.219740000000     0.728420000000    -0.351165   
O370     O      0.856990000000     0.250930000000     0.705330000000    -0.343157   
O371     O      0.817960000000     0.129340000000     0.726980000000    -0.348181   
O372     O      0.855010000000     0.097910000000     0.703980000000    -0.340636   
O373     O      0.975060000000     0.219770000000     0.729050000000    -0.349613   
O374     O      0.940320000000     0.251290000000     0.704680000000    -0.342401   
O375     O      0.956050000000     0.173490000000     0.761390000000    -0.50879    
O376     O      0.033340000000     0.175720000000     0.717430000000    -0.337309   
O377     O      0.840920000000     0.173340000000     0.761430000000    -0.339122   
O378     O      0.763550000000     0.175360000000     0.717050000000    -0.516146   
O379     O      0.898060000000     0.148370000000     0.717060000000    -0.610794   
O380     O      0.898000000000     0.201010000000     0.717210000000    -0.46556    
O381     O      0.965380000000     0.145700000000     0.674840000000    -0.475947   
O382     O      0.831760000000     0.203150000000     0.674370000000    -0.622491   
O383     O      0.964810000000     0.203410000000     0.674940000000    -0.622611   
O384     O      0.831610000000     0.145440000000     0.674480000000    -0.475711   
O385     O      0.069360000000     0.871110000000     0.969900000000    -0.351249   
O386     O      0.107410000000     0.893990000000     0.000980000000    -0.340847   
O387     O      0.728810000000     0.872020000000     0.378960000000    -0.344884   
O388     O      0.689730000000     0.894270000000     0.347970000000    -0.343014   
O389     O      0.726490000000     0.870880000000     0.969270000000    -0.353325   
O390     O      0.691360000000     0.894750000000     0.000980000000    -0.340288   
O391     O      0.066970000000     0.872730000000     0.379650000000    -0.348508   
O392     O      0.104090000000     0.895420000000     0.348040000000    -0.340817   
O393     O      0.091600000000     0.837940000000     0.923410000000    -0.339873   
O394     O      0.013640000000     0.881960000000     0.425810000000    -0.514975   
O395     O      0.705140000000     0.838040000000     0.923340000000    -0.509464   
O396     O      0.783310000000     0.881510000000     0.424860000000    -0.33305    
O397     O      0.148280000000     0.882100000000     0.950920000000    -0.46576    
O398     O      0.147840000000     0.882280000000     0.398260000000    -0.610763   
O399     O      0.067930000000     0.477680000000     0.379270000000    -0.347301   
O400     O      0.106510000000     0.455190000000     0.348160000000    -0.343363   
O401     O      0.727280000000     0.478540000000     0.969640000000    -0.352868   
O402     O      0.689760000000     0.455430000000     0.000830000000    -0.341004   
O403     O      0.728650000000     0.477180000000     0.379260000000    -0.345354   
O404     O      0.691650000000     0.454120000000     0.347840000000    -0.340324   
O405     O      0.071650000000     0.479100000000     0.969710000000    -0.348905   
O406     O      0.106440000000     0.454740000000     0.001210000000    -0.339929   
O407     O      0.090540000000     0.511450000000     0.423430000000    -0.509096   
O408     O      0.013340000000     0.467420000000     0.425680000000    -0.337605   
O409     O      0.705670000000     0.511570000000     0.423310000000    -0.339147   
O410     O      0.783120000000     0.467240000000     0.425080000000    -0.517301   
O411     O      0.648600000000     0.467160000000     0.398300000000    -0.610844   
O412     O      0.648700000000     0.467300000000     0.950930000000    -0.465572   
O413     O      0.081350000000     0.924880000000     0.395640000000    -0.475844   
O414     O      0.715000000000     0.424500000000     0.953040000000    -0.622413   
O415     O      0.081960000000     0.424980000000     0.953340000000    -0.62221    
O416     O      0.715120000000     0.924600000000     0.395350000000    -0.474839   
O417     O      0.977490000000     0.719960000000     0.121090000000    -0.351879   
O418     O      0.939430000000     0.751060000000     0.143940000000    -0.343275   
O419     O      0.817990000000     0.629070000000     0.121880000000    -0.347311   
O420     O      0.857020000000     0.598060000000     0.144160000000    -0.343129   
O421     O      0.820490000000     0.719390000000     0.120700000000    -0.351141   
O422     O      0.855530000000     0.751090000000     0.144640000000    -0.342561   
O423     O      0.979810000000     0.629710000000     0.122690000000    -0.348591   
O424     O      0.942640000000     0.598100000000     0.145350000000    -0.340844   
O425     O      0.955300000000     0.673480000000     0.087910000000    -0.339686   
O426     O      0.033180000000     0.675860000000     0.131990000000    -0.515181   
O427     O      0.841470000000     0.673400000000     0.087940000000    -0.509746   
O428     O      0.763490000000     0.675080000000     0.131540000000    -0.33608    
O429     O      0.898550000000     0.701000000000     0.132030000000    -0.465779   
O430     O      0.898950000000     0.648350000000     0.132200000000    -0.610746   
O431     O      0.978710000000     0.629320000000     0.227630000000    -0.347588   
O432     O      0.940140000000     0.598210000000     0.205130000000    -0.34351    
O433     O      0.819430000000     0.719740000000     0.228420000000    -0.351162   
O434     O      0.856990000000     0.750930000000     0.205330000000    -0.343166   
O435     O      0.817960000000     0.629340000000     0.226980000000    -0.348193   
O436     O      0.855010000000     0.597910000000     0.203980000000    -0.340665   
O437     O      0.975060000000     0.719770000000     0.229050000000    -0.34962    
O438     O      0.940320000000     0.751290000000     0.204680000000    -0.342412   
O439     O      0.956050000000     0.673490000000     0.261390000000    -0.508996   
O440     O      0.033340000000     0.675720000000     0.217430000000    -0.337261   
O441     O      0.840920000000     0.673340000000     0.261430000000    -0.338966   
O442     O      0.763550000000     0.675360000000     0.217050000000    -0.516149   
O443     O      0.898060000000     0.648370000000     0.217060000000    -0.610621   
O444     O      0.898000000000     0.701010000000     0.217210000000    -0.465555   
O445     O      0.965380000000     0.645700000000     0.174840000000    -0.475965   
O446     O      0.831760000000     0.703150000000     0.174370000000    -0.622495   
O447     O      0.964810000000     0.703410000000     0.174940000000    -0.622614   
O448     O      0.831610000000     0.645440000000     0.174480000000    -0.475721   
O449     O      0.069360000000     0.871110000000     0.469890000000    -0.351719   
O450     O      0.107410000000     0.893990000000     0.500980000000    -0.343243   
O451     O      0.728810000000     0.872020000000     0.878960000000    -0.344881   
O452     O      0.689730000000     0.894270000000     0.847970000000    -0.342996   
O453     O      0.726490000000     0.870880000000     0.469270000000    -0.353877   
O454     O      0.691360000000     0.894750000000     0.500980000000    -0.342737   
O455     O      0.066970000000     0.872730000000     0.879650000000    -0.348519   
O456     O      0.104090000000     0.895420000000     0.848040000000    -0.340812   
O457     O      0.091600000000     0.837940000000     0.423410000000    -0.339763   
O458     O      0.013640000000     0.881960000000     0.925820000000    -0.514985   
O459     O      0.705140000000     0.838040000000     0.423340000000    -0.509635   
O460     O      0.783310000000     0.881510000000     0.924860000000    -0.333178   
O461     O      0.148280000000     0.882100000000     0.450920000000    -0.465759   
O462     O      0.147840000000     0.882280000000     0.898260000000    -0.610692   
O463     O      0.067930000000     0.477680000000     0.879270000000    -0.347301   
O464     O      0.106510000000     0.455190000000     0.848160000000    -0.34335    
O465     O      0.727280000000     0.478540000000     0.469640000000    -0.353417   
O466     O      0.689760000000     0.455430000000     0.500830000000    -0.343465   
O467     O      0.728650000000     0.477180000000     0.879260000000    -0.345354   
O468     O      0.691650000000     0.454120000000     0.847840000000    -0.340312   
O469     O      0.071650000000     0.479100000000     0.469710000000    -0.349454   
O470     O      0.106440000000     0.454740000000     0.501210000000    -0.342374   
O471     O      0.090540000000     0.511450000000     0.923430000000    -0.5091     
O472     O      0.013340000000     0.467420000000     0.925680000000    -0.337775   
O473     O      0.705670000000     0.511570000000     0.923310000000    -0.339264   
O474     O      0.783120000000     0.467240000000     0.925080000000    -0.517294   
O475     O      0.648600000000     0.467160000000     0.898290000000    -0.610882   
O476     O      0.648700000000     0.467300000000     0.450930000000    -0.465557   
O477     O      0.081350000000     0.924880000000     0.895640000000    -0.475789   
O478     O      0.715000000000     0.424500000000     0.453040000000    -0.622616   
O479     O      0.081960000000     0.424980000000     0.453340000000    -0.622413   
O480     O      0.715120000000     0.924600000000     0.895350000000    -0.474779   
O481     O      0.977490000000     0.719960000000     0.621090000000    -0.351908   
O482     O      0.939430000000     0.751060000000     0.643940000000    -0.343271   
O483     O      0.817990000000     0.629070000000     0.621880000000    -0.347338   
O484     O      0.857020000000     0.598060000000     0.644160000000    -0.343128   
O485     O      0.820490000000     0.719390000000     0.620700000000    -0.35116    
O486     O      0.855530000000     0.751090000000     0.644640000000    -0.342559   
O487     O      0.979810000000     0.629710000000     0.622690000000    -0.348607   
O488     O      0.942640000000     0.598100000000     0.645350000000    -0.340748   
O489     O      0.955300000000     0.673480000000     0.587910000000    -0.339792   
O490     O      0.033180000000     0.675860000000     0.631990000000    -0.515171   
O491     O      0.841470000000     0.673400000000     0.587940000000    -0.509726   
O492     O      0.763490000000     0.675080000000     0.631540000000    -0.336116   
O493     O      0.898550000000     0.701000000000     0.632030000000    -0.465789   
O494     O      0.898950000000     0.648350000000     0.632200000000    -0.610737   
O495     O      0.978710000000     0.629320000000     0.727630000000    -0.347589   
O496     O      0.940140000000     0.598210000000     0.705130000000    -0.343502   
O497     O      0.819430000000     0.719740000000     0.728420000000    -0.351165   
O498     O      0.856990000000     0.750930000000     0.705330000000    -0.343158   
O499     O      0.817960000000     0.629340000000     0.726980000000    -0.348193   
O500     O      0.855010000000     0.597910000000     0.703980000000    -0.340658   
O501     O      0.975060000000     0.719770000000     0.729050000000    -0.34961    
O502     O      0.940320000000     0.751290000000     0.704680000000    -0.342401   
O503     O      0.956050000000     0.673490000000     0.761390000000    -0.508786   
O504     O      0.033340000000     0.675720000000     0.717430000000    -0.337254   
O505     O      0.840920000000     0.673340000000     0.761430000000    -0.338989   
O506     O      0.763550000000     0.675360000000     0.717050000000    -0.516145   
O507     O      0.898060000000     0.648370000000     0.717060000000    -0.610619   
O508     O      0.898000000000     0.701010000000     0.717210000000    -0.465556   
O509     O      0.965380000000     0.645700000000     0.674840000000    -0.475949   
O510     O      0.831760000000     0.703150000000     0.674370000000    -0.622491   
O511     O      0.964810000000     0.703410000000     0.674940000000    -0.622609   
O512     O      0.831610000000     0.645440000000     0.674480000000    -0.475712   
Zr1      Zr     0.586890000000     0.386580000000     0.924720000000     1.29022    
Zr2      Zr     0.209300000000     0.386230000000     0.924210000000     1.29047    
Zr3      Zr     0.587400000000     0.963240000000     0.424500000000     1.29011    
Zr4      Zr     0.209820000000     0.962900000000     0.424460000000     1.29001    
Zr5      Zr     0.148590000000     0.924690000000     0.974830000000     1.26088    
Zr6      Zr     0.648130000000     0.424710000000     0.374150000000     1.26094    
Zr7      Zr     0.459920000000     0.174790000000     0.136550000000     1.29053    
Zr8      Zr     0.337500000000     0.174310000000     0.136120000000     1.29111    
Zr9      Zr     0.459290000000     0.174560000000     0.213200000000     1.29034    
Zr10     Zr     0.336860000000     0.174560000000     0.212770000000     1.28998    
Zr11     Zr     0.398190000000     0.224920000000     0.174610000000     1.26455    
Zr12     Zr     0.398590000000     0.124220000000     0.174630000000     1.26106    
Zr13     Zr     0.586890000000     0.386580000000     0.424720000000     1.29045    
Zr14     Zr     0.209300000000     0.386230000000     0.424210000000     1.29068    
Zr15     Zr     0.587400000000     0.963240000000     0.924500000000     1.28986    
Zr16     Zr     0.209820000000     0.962900000000     0.924460000000     1.28976    
Zr17     Zr     0.148590000000     0.924690000000     0.474830000000     1.26445    
Zr18     Zr     0.648130000000     0.424710000000     0.874150000000     1.26106    
Zr19     Zr     0.459920000000     0.174790000000     0.636550000000     1.29053    
Zr20     Zr     0.337500000000     0.174310000000     0.636120000000     1.2911     
Zr21     Zr     0.459290000000     0.174560000000     0.713200000000     1.29035    
Zr22     Zr     0.336860000000     0.174560000000     0.712770000000     1.28999    
Zr23     Zr     0.398190000000     0.224920000000     0.674610000000     1.26457    
Zr24     Zr     0.398590000000     0.124220000000     0.674630000000     1.26107    
Zr25     Zr     0.586890000000     0.886580000000     0.924720000000     1.29021    
Zr26     Zr     0.209300000000     0.886230000000     0.924210000000     1.29048    
Zr27     Zr     0.587400000000     0.463250000000     0.424500000000     1.29037    
Zr28     Zr     0.209820000000     0.462900000000     0.424460000000     1.2902     
Zr29     Zr     0.148590000000     0.424690000000     0.974830000000     1.26088    
Zr30     Zr     0.648130000000     0.924710000000     0.374150000000     1.26093    
Zr31     Zr     0.459920000000     0.674790000000     0.136550000000     1.29053    
Zr32     Zr     0.337500000000     0.674310000000     0.136120000000     1.29112    
Zr33     Zr     0.459290000000     0.674560000000     0.213200000000     1.29033    
Zr34     Zr     0.336860000000     0.674560000000     0.212770000000     1.28996    
Zr35     Zr     0.398190000000     0.724920000000     0.174610000000     1.26455    
Zr36     Zr     0.398590000000     0.624220000000     0.174630000000     1.26103    
Zr37     Zr     0.586890000000     0.886580000000     0.424720000000     1.29044    
Zr38     Zr     0.209300000000     0.886230000000     0.424210000000     1.29068    
Zr39     Zr     0.587400000000     0.463250000000     0.924500000000     1.29013    
Zr40     Zr     0.209820000000     0.462900000000     0.924460000000     1.28995    
Zr41     Zr     0.148590000000     0.424690000000     0.474830000000     1.26445    
Zr42     Zr     0.648130000000     0.924710000000     0.874150000000     1.26105    
Zr43     Zr     0.459920000000     0.674790000000     0.636550000000     1.29053    
Zr44     Zr     0.337500000000     0.674310000000     0.636120000000     1.2911     
Zr45     Zr     0.459290000000     0.674560000000     0.713200000000     1.29034    
Zr46     Zr     0.336860000000     0.674560000000     0.712770000000     1.28998    
Zr47     Zr     0.398190000000     0.724920000000     0.674610000000     1.26457    
Zr48     Zr     0.398590000000     0.624220000000     0.674630000000     1.26105    
Zr49     Zr     0.086890000000     0.386580000000     0.924720000000     1.2902     
Zr50     Zr     0.709300000000     0.386230000000     0.924210000000     1.29046    
Zr51     Zr     0.087400000000     0.963240000000     0.424500000000     1.29013    
Zr52     Zr     0.709820000000     0.962900000000     0.424460000000     1.29001    
Zr53     Zr     0.648600000000     0.924690000000     0.974830000000     1.26095    
Zr54     Zr     0.148130000000     0.424710000000     0.374150000000     1.26095    
Zr55     Zr     0.959920000000     0.174790000000     0.136550000000     1.29035    
Zr56     Zr     0.837500000000     0.174310000000     0.136120000000     1.2911     
Zr57     Zr     0.959280000000     0.174560000000     0.213200000000     1.29014    
Zr58     Zr     0.836860000000     0.174560000000     0.212770000000     1.28999    
Zr59     Zr     0.898190000000     0.224920000000     0.174610000000     1.26456    
Zr60     Zr     0.898590000000     0.124220000000     0.174630000000     1.26109    
Zr61     Zr     0.086890000000     0.386580000000     0.424720000000     1.29044    
Zr62     Zr     0.709300000000     0.386230000000     0.424210000000     1.29067    
Zr63     Zr     0.087400000000     0.963240000000     0.924500000000     1.28988    
Zr64     Zr     0.709820000000     0.962900000000     0.924460000000     1.28976    
Zr65     Zr     0.648600000000     0.924690000000     0.474830000000     1.26452    
Zr66     Zr     0.148130000000     0.424710000000     0.874150000000     1.26107    
Zr67     Zr     0.959920000000     0.174790000000     0.636550000000     1.29035    
Zr68     Zr     0.837500000000     0.174310000000     0.636120000000     1.29109    
Zr69     Zr     0.959280000000     0.174560000000     0.713200000000     1.29015    
Zr70     Zr     0.836860000000     0.174560000000     0.712770000000     1.29001    
Zr71     Zr     0.898190000000     0.224920000000     0.674610000000     1.26458    
Zr72     Zr     0.898590000000     0.124220000000     0.674630000000     1.2611     
Zr73     Zr     0.086890000000     0.886580000000     0.924720000000     1.29019    
Zr74     Zr     0.709300000000     0.886230000000     0.924210000000     1.29047    
Zr75     Zr     0.087400000000     0.463250000000     0.424500000000     1.29039    
Zr76     Zr     0.709820000000     0.462900000000     0.424460000000     1.29019    
Zr77     Zr     0.648600000000     0.424690000000     0.974830000000     1.26096    
Zr78     Zr     0.148130000000     0.924710000000     0.374150000000     1.26094    
Zr79     Zr     0.959920000000     0.674790000000     0.136550000000     1.29035    
Zr80     Zr     0.837500000000     0.674310000000     0.136120000000     1.29111    
Zr81     Zr     0.959280000000     0.674560000000     0.213200000000     1.29013    
Zr82     Zr     0.836860000000     0.674560000000     0.212770000000     1.28998    
Zr83     Zr     0.898190000000     0.724920000000     0.174610000000     1.26456    
Zr84     Zr     0.898590000000     0.624220000000     0.174630000000     1.26107    
Zr85     Zr     0.086890000000     0.886580000000     0.424720000000     1.29043    
Zr86     Zr     0.709300000000     0.886230000000     0.424210000000     1.29067    
Zr87     Zr     0.087400000000     0.463250000000     0.924500000000     1.29015    
Zr88     Zr     0.709820000000     0.462900000000     0.924460000000     1.28995    
Zr89     Zr     0.648600000000     0.424690000000     0.474830000000     1.26453    
Zr90     Zr     0.148130000000     0.924710000000     0.874150000000     1.26106    
Zr91     Zr     0.959920000000     0.674790000000     0.636550000000     1.29035    
Zr92     Zr     0.837500000000     0.674310000000     0.636120000000     1.2911     
Zr93     Zr     0.959280000000     0.674560000000     0.713200000000     1.29014    
Zr94     Zr     0.836860000000     0.674560000000     0.712770000000     1.28999    
Zr95     Zr     0.898190000000     0.724920000000     0.674610000000     1.26459    
Zr96     Zr     0.898590000000     0.624220000000     0.674630000000     1.26108    


