data_structure

_audit_creation_method RASPA-1.0
_audit_creation_date 2023-5-9
_audit_author_name 'Poobodin Mano'

_cell_length_a    42.8608
_cell_length_b    42.8701
_cell_length_c    42.8638
_cell_angle_alpha 90
_cell_angle_beta  90
_cell_angle_gamma 90
_cell_volume      78760

_symmetry_cell_setting          triclinic
_symmetry_space_group_name_Hall 'P 1'
_symmetry_space_group_name_H-M  'P 1'
_symmetry_Int_Tables_number     1

_symmetry_equiv_pos_as_xyz 'x,y,z'

loop_
_atom_site_label
_atom_site_type_symbol
_atom_site_fract_x
_atom_site_fract_y
_atom_site_fract_z
_atom_site_charge
C1       C      0.387680000000     0.966000000000     0.133860000000     0.379943   
C2       C      0.465700000000     0.042190000000     0.296460000000     0.381259   
C3       C      0.464660000000     0.042250000000     0.133860000000     0.379516   
C4       C      0.387660000000     0.963250000000     0.296470000000     0.381683   
C5       C      0.964130000000     0.387880000000     0.296450000000     0.379982   
C6       C      0.041970000000     0.463930000000     0.133860000000     0.38095    
C7       C      0.041950000000     0.467030000000     0.296500000000     0.382385   
C8       C      0.964830000000     0.387860000000     0.133850000000     0.378301   
C9       C      0.041990000000     0.133750000000     0.965230000000     0.378598   
C10      C      0.963810000000     0.296360000000     0.042290000000     0.3794     
C11      C      0.965140000000     0.133780000000     0.042340000000     0.377875   
C12      C      0.041990000000     0.296380000000     0.964220000000     0.380375   
C13      C      0.465670000000     0.296350000000     0.387960000000     0.381522   
C14      C      0.387650000000     0.133770000000     0.464870000000     0.380652   
C15      C      0.387690000000     0.296390000000     0.466270000000     0.382354   
C16      C      0.464670000000     0.133760000000     0.387940000000     0.379551   
C17      C      0.296120000000     0.042240000000     0.965270000000     0.378468   
C18      C      0.133540000000     0.963370000000     0.042360000000     0.379888   
C19      C      0.296120000000     0.966060000000     0.042350000000     0.378022   
C20      C      0.133490000000     0.042190000000     0.964180000000     0.380397   
C21      C      0.133500000000     0.466940000000     0.388030000000     0.381581   
C22      C      0.296150000000     0.387910000000     0.465240000000     0.380528   
C23      C      0.133500000000     0.387910000000     0.465970000000     0.382665   
C24      C      0.296120000000     0.463880000000     0.388000000000     0.379802   
C25      C      0.334310000000     0.311600000000     0.467000000000     0.0280962  
C26      C      0.373260000000     0.350360000000     0.465010000000     0.02873    
C27      C      0.350140000000     0.373470000000     0.464660000000     0.0280624  
C28      C      0.311350000000     0.334550000000     0.466580000000     0.026251   
C29      C      0.373220000000     0.079790000000     0.964900000000     0.0269923  
C30      C      0.334250000000     0.118580000000     0.464950000000     0.0260504  
C31      C      0.311300000000     0.095620000000     0.465140000000     0.0263832  
C32      C      0.350110000000     0.056680000000     0.965160000000     0.0271416  
C33      C      0.079510000000     0.373480000000     0.965290000000     0.0281546  
C34      C      0.118320000000     0.334530000000     0.465430000000     0.0286687  
C35      C      0.095370000000     0.311570000000     0.464750000000     0.0287692  
C36      C      0.056400000000     0.350360000000     0.964820000000     0.0283217  
C37      C      0.095360000000     0.118530000000     0.963900000000     0.0256951  
C38      C      0.056410000000     0.079770000000     0.965880000000     0.0282409  
C39      C      0.079510000000     0.056640000000     0.965520000000     0.0286392  
C40      C      0.118300000000     0.095560000000     0.963480000000     0.0277558  
C41      C      0.334280000000     0.462210000000     0.311680000000     0.0291111  
C42      C      0.373230000000     0.963560000000     0.350460000000     0.0278684  
C43      C      0.350110000000     0.963660000000     0.373580000000     0.0270255  
C44      C      0.311320000000     0.462450000000     0.334630000000     0.0257088  
C45      C      0.095280000000     0.469210000000     0.311750000000     0.030079   
C46      C      0.056390000000     0.466080000000     0.350490000000     0.0297824  
C47      C      0.079510000000     0.466060000000     0.373600000000     0.0293275  
C48      C      0.118250000000     0.469190000000     0.334700000000     0.0262354  
C49      C      0.118320000000     0.962370000000     0.095740000000     0.0258655  
C50      C      0.079540000000     0.463570000000     0.056770000000     0.0300313  
C51      C      0.056410000000     0.463650000000     0.079880000000     0.029673   
C52      C      0.095350000000     0.962570000000     0.118690000000     0.0270474  
C53      C      0.373240000000     0.966930000000     0.079880000000     0.0279591  
C54      C      0.334280000000     0.966260000000     0.118690000000     0.026392   
C55      C      0.311320000000     0.966260000000     0.095740000000     0.0248459  
C56      C      0.350110000000     0.966940000000     0.056770000000     0.027838   
C57      C      0.464100000000     0.079770000000     0.373540000000     0.0286899  
C58      C      0.965940000000     0.118530000000     0.334590000000     0.0256088  
C59      C      0.966350000000     0.095560000000     0.311650000000     0.0266358  
C60      C      0.464450000000     0.056640000000     0.350440000000     0.0292531  
C61      C      0.965150000000     0.350330000000     0.373550000000     0.0277154  
C62      C      0.465210000000     0.311540000000     0.334580000000     0.0271399  
C63      C      0.464600000000     0.334500000000     0.311630000000     0.0271156  
C64      C      0.964730000000     0.373450000000     0.350440000000     0.0276033  
C65      C      0.963140000000     0.311560000000     0.095660000000     0.0266503  
C66      C      0.964980000000     0.350330000000     0.056720000000     0.0286082  
C67      C      0.965320000000     0.373440000000     0.079850000000     0.0279575  
C68      C      0.963540000000     0.334500000000     0.118630000000     0.0255377  
C69      C      0.464800000000     0.056670000000     0.079870000000     0.0293991  
C70      C      0.464820000000     0.095630000000     0.118680000000     0.0269255  
C71      C      0.965010000000     0.118580000000     0.095730000000     0.0261727  
C72      C      0.965070000000     0.079790000000     0.056760000000     0.0284772  
C73      C      0.387680000000     0.966000000000     0.633860000000     0.379754   
C74      C      0.465700000000     0.042190000000     0.796460000000     0.381239   
C75      C      0.464660000000     0.042250000000     0.633860000000     0.379334   
C76      C      0.387660000000     0.963250000000     0.796470000000     0.381749   
C77      C      0.964130000000     0.387880000000     0.796450000000     0.380045   
C78      C      0.041970000000     0.463930000000     0.633860000000     0.380741   
C79      C      0.041950000000     0.467030000000     0.796500000000     0.382473   
C80      C      0.964830000000     0.387860000000     0.633850000000     0.37811    
C81      C      0.041990000000     0.133750000000     0.465230000000     0.380396   
C82      C      0.963810000000     0.296360000000     0.542290000000     0.379805   
C83      C      0.965140000000     0.133780000000     0.542340000000     0.378395   
C84      C      0.041990000000     0.296380000000     0.464210000000     0.38216    
C85      C      0.465670000000     0.296350000000     0.887960000000     0.381311   
C86      C      0.387650000000     0.133770000000     0.964870000000     0.378859   
C87      C      0.387690000000     0.296390000000     0.966270000000     0.38056    
C88      C      0.464670000000     0.133760000000     0.887940000000     0.379337   
C89      C      0.296120000000     0.042240000000     0.465270000000     0.380262   
C90      C      0.133540000000     0.963370000000     0.542360000000     0.380305   
C91      C      0.296120000000     0.966060000000     0.542350000000     0.378447   
C92      C      0.133490000000     0.042190000000     0.464180000000     0.382181   
C93      C      0.133500000000     0.466940000000     0.888030000000     0.381373   
C94      C      0.296150000000     0.387910000000     0.965240000000     0.378746   
C95      C      0.133500000000     0.387910000000     0.965970000000     0.380865   
C96      C      0.296120000000     0.463880000000     0.888000000000     0.379593   
C97      C      0.334310000000     0.311600000000     0.967000000000     0.0268948  
C98      C      0.373260000000     0.350360000000     0.965010000000     0.0274206  
C99      C      0.350140000000     0.373470000000     0.964660000000     0.0267509  
C100     C      0.311350000000     0.334550000000     0.966580000000     0.0250627  
C101     C      0.373220000000     0.079790000000     0.464900000000     0.0283234  
C102     C      0.334250000000     0.118580000000     0.964950000000     0.0248096  
C103     C      0.311300000000     0.095620000000     0.965140000000     0.0252012  
C104     C      0.350110000000     0.056680000000     0.465160000000     0.0284801  
C105     C      0.079510000000     0.373480000000     0.465290000000     0.029483   
C106     C      0.118320000000     0.334530000000     0.965430000000     0.0274296  
C107     C      0.095370000000     0.311570000000     0.964750000000     0.027612   
C108     C      0.056400000000     0.350360000000     0.464820000000     0.0296511  
C109     C      0.095360000000     0.118530000000     0.463900000000     0.026917   
C110     C      0.056410000000     0.079770000000     0.465880000000     0.0295904  
C111     C      0.079510000000     0.056640000000     0.465520000000     0.0299851  
C112     C      0.118300000000     0.095560000000     0.463480000000     0.0289674  
C113     C      0.334280000000     0.462210000000     0.811680000000     0.0291786  
C114     C      0.373230000000     0.963560000000     0.850460000000     0.0278502  
C115     C      0.350110000000     0.963660000000     0.873580000000     0.0271007  
C116     C      0.311320000000     0.462450000000     0.834630000000     0.0257906  
C117     C      0.095280000000     0.469210000000     0.811750000000     0.0301485  
C118     C      0.056390000000     0.466080000000     0.850490000000     0.0297622  
C119     C      0.079510000000     0.466060000000     0.873600000000     0.0293985  
C120     C      0.118250000000     0.469190000000     0.834700000000     0.0263165  
C121     C      0.118320000000     0.962370000000     0.595740000000     0.0252976  
C122     C      0.079540000000     0.463570000000     0.556770000000     0.0290082  
C123     C      0.056410000000     0.463650000000     0.579880000000     0.0288074  
C124     C      0.095350000000     0.962570000000     0.618690000000     0.0266729  
C125     C      0.373240000000     0.966930000000     0.579880000000     0.0270829  
C126     C      0.334280000000     0.966260000000     0.618690000000     0.0260106  
C127     C      0.311320000000     0.966260000000     0.595740000000     0.0242745  
C128     C      0.350110000000     0.966940000000     0.556770000000     0.0268085  
C129     C      0.464100000000     0.079770000000     0.873540000000     0.0287611  
C130     C      0.965940000000     0.118530000000     0.834590000000     0.0256842  
C131     C      0.966350000000     0.095560000000     0.811650000000     0.0267239  
C132     C      0.464450000000     0.056640000000     0.850440000000     0.0292324  
C133     C      0.965150000000     0.350330000000     0.873550000000     0.0277916  
C134     C      0.465210000000     0.311540000000     0.834580000000     0.0272226  
C135     C      0.464600000000     0.334500000000     0.811630000000     0.0271831  
C136     C      0.964730000000     0.373450000000     0.850440000000     0.0275848  
C137     C      0.963140000000     0.311560000000     0.595660000000     0.0260677  
C138     C      0.964980000000     0.350330000000     0.556720000000     0.0275707  
C139     C      0.965320000000     0.373440000000     0.579850000000     0.0270786  
C140     C      0.963540000000     0.334500000000     0.618630000000     0.0251538  
C141     C      0.464800000000     0.056670000000     0.579870000000     0.0285148  
C142     C      0.464820000000     0.095630000000     0.618680000000     0.0265786  
C143     C      0.965010000000     0.118580000000     0.595730000000     0.0255546  
C144     C      0.965070000000     0.079790000000     0.556760000000     0.02751    
C145     C      0.387680000000     0.466000000000     0.133860000000     0.381143   
C146     C      0.465700000000     0.542190000000     0.296460000000     0.381402   
C147     C      0.464660000000     0.542250000000     0.133860000000     0.379725   
C148     C      0.387660000000     0.463250000000     0.296470000000     0.382809   
C149     C      0.964130000000     0.887870000000     0.296450000000     0.379876   
C150     C      0.041970000000     0.963930000000     0.133860000000     0.379674   
C151     C      0.041950000000     0.967030000000     0.296500000000     0.381191   
C152     C      0.964830000000     0.887860000000     0.133850000000     0.378161   
C153     C      0.041990000000     0.633750000000     0.965230000000     0.378532   
C154     C      0.963810000000     0.796360000000     0.042290000000     0.379441   
C155     C      0.965140000000     0.633780000000     0.042340000000     0.377729   
C156     C      0.041990000000     0.796370000000     0.964220000000     0.380672   
C157     C      0.465670000000     0.796350000000     0.387960000000     0.381566   
C158     C      0.387650000000     0.633770000000     0.464870000000     0.380509   
C159     C      0.387690000000     0.796390000000     0.466270000000     0.382312   
C160     C      0.464670000000     0.633760000000     0.387940000000     0.379401   
C161     C      0.296120000000     0.542240000000     0.965270000000     0.378775   
C162     C      0.133540000000     0.463370000000     0.042360000000     0.381177   
C163     C      0.296120000000     0.466060000000     0.042350000000     0.379327   
C164     C      0.133490000000     0.542190000000     0.964180000000     0.380678   
C165     C      0.133500000000     0.966950000000     0.388030000000     0.380203   
C166     C      0.296150000000     0.887910000000     0.465240000000     0.380374   
C167     C      0.133500000000     0.887910000000     0.465970000000     0.382514   
C168     C      0.296120000000     0.963880000000     0.388000000000     0.37843    
C169     C      0.334310000000     0.811600000000     0.467000000000     0.0281392  
C170     C      0.373260000000     0.850360000000     0.465010000000     0.0287124  
C171     C      0.350140000000     0.873470000000     0.464660000000     0.0281122  
C172     C      0.311350000000     0.834550000000     0.466580000000     0.0263101  
C173     C      0.373220000000     0.579790000000     0.964900000000     0.0264061  
C174     C      0.334250000000     0.618580000000     0.464950000000     0.0257905  
C175     C      0.311300000000     0.595620000000     0.465140000000     0.0259799  
C176     C      0.350110000000     0.556670000000     0.965160000000     0.0263542  
C177     C      0.079510000000     0.873480000000     0.965290000000     0.0282064  
C178     C      0.118320000000     0.834530000000     0.465430000000     0.0287378  
C179     C      0.095370000000     0.811570000000     0.464750000000     0.0287899  
C180     C      0.056400000000     0.850360000000     0.964820000000     0.0283119  
C181     C      0.095360000000     0.618530000000     0.963900000000     0.025426   
C182     C      0.056410000000     0.579770000000     0.965880000000     0.0276139  
C183     C      0.079510000000     0.556640000000     0.965520000000     0.0278942  
C184     C      0.118300000000     0.595560000000     0.963480000000     0.0273305  
C185     C      0.334280000000     0.962210000000     0.311680000000     0.0282883  
C186     C      0.373230000000     0.463560000000     0.350460000000     0.028817   
C187     C      0.350110000000     0.463660000000     0.373580000000     0.0279825  
C188     C      0.311320000000     0.962450000000     0.334630000000     0.0248518  
C189     C      0.095280000000     0.969210000000     0.311750000000     0.0292105  
C190     C      0.056390000000     0.966080000000     0.350490000000     0.0288315  
C191     C      0.079510000000     0.966060000000     0.373600000000     0.028367   
C192     C      0.118250000000     0.969190000000     0.334700000000     0.0253766  
C193     C      0.118320000000     0.462370000000     0.095740000000     0.0267151  
C194     C      0.079540000000     0.963570000000     0.056770000000     0.0290696  
C195     C      0.056410000000     0.963640000000     0.079880000000     0.0287252  
C196     C      0.095350000000     0.462580000000     0.118690000000     0.0279371  
C197     C      0.373240000000     0.466930000000     0.079880000000     0.0289521  
C198     C      0.334280000000     0.466260000000     0.118690000000     0.0273063  
C199     C      0.311320000000     0.466260000000     0.095740000000     0.025763   
C200     C      0.350110000000     0.466940000000     0.056770000000     0.0288346  
C201     C      0.464100000000     0.579770000000     0.373540000000     0.0280668  
C202     C      0.965940000000     0.618530000000     0.334590000000     0.0253426  
C203     C      0.966350000000     0.595560000000     0.311650000000     0.0262225  
C204     C      0.464450000000     0.556640000000     0.350440000000     0.0285121  
C205     C      0.965150000000     0.850330000000     0.373550000000     0.0276838  
C206     C      0.465210000000     0.811540000000     0.334580000000     0.0271857  
C207     C      0.464600000000     0.834500000000     0.311630000000     0.0271744  
C208     C      0.964730000000     0.873450000000     0.350440000000     0.0276826  
C209     C      0.963140000000     0.811560000000     0.095660000000     0.0266923  
C210     C      0.964980000000     0.850340000000     0.056720000000     0.0284939  
C211     C      0.965320000000     0.873440000000     0.079850000000     0.0280536  
C212     C      0.963540000000     0.834500000000     0.118630000000     0.0256033  
C213     C      0.464800000000     0.556670000000     0.079870000000     0.0286764  
C214     C      0.464820000000     0.595620000000     0.118680000000     0.0266207  
C215     C      0.965010000000     0.618580000000     0.095730000000     0.0258689  
C216     C      0.965070000000     0.579790000000     0.056760000000     0.0278547  
C217     C      0.387680000000     0.466000000000     0.633860000000     0.380954   
C218     C      0.465700000000     0.542190000000     0.796460000000     0.38138    
C219     C      0.464660000000     0.542250000000     0.633860000000     0.379543   
C220     C      0.387660000000     0.463250000000     0.796470000000     0.382875   
C221     C      0.964130000000     0.887870000000     0.796450000000     0.379939   
C222     C      0.041970000000     0.963930000000     0.633860000000     0.379466   
C223     C      0.041950000000     0.967030000000     0.796500000000     0.38128    
C224     C      0.964830000000     0.887860000000     0.633850000000     0.37797    
C225     C      0.041990000000     0.633750000000     0.465230000000     0.380331   
C226     C      0.963810000000     0.796360000000     0.542290000000     0.379847   
C227     C      0.965140000000     0.633780000000     0.542340000000     0.37825    
C228     C      0.041990000000     0.796370000000     0.464210000000     0.382456   
C229     C      0.465670000000     0.796350000000     0.887960000000     0.381168   
C230     C      0.387650000000     0.633770000000     0.964870000000     0.378716   
C231     C      0.387690000000     0.796390000000     0.966270000000     0.380518   
C232     C      0.464670000000     0.633760000000     0.887940000000     0.379189   
C233     C      0.296120000000     0.542240000000     0.465270000000     0.380574   
C234     C      0.133540000000     0.463370000000     0.542360000000     0.381596   
C235     C      0.296120000000     0.466060000000     0.542350000000     0.379761   
C236     C      0.133490000000     0.542190000000     0.464180000000     0.382468   
C237     C      0.133500000000     0.966950000000     0.888030000000     0.379996   
C238     C      0.296150000000     0.887910000000     0.965240000000     0.378597   
C239     C      0.133500000000     0.887910000000     0.965970000000     0.380716   
C240     C      0.296120000000     0.963880000000     0.888000000000     0.378223   
C241     C      0.334310000000     0.811600000000     0.967000000000     0.0269391  
C242     C      0.373260000000     0.850360000000     0.965010000000     0.0274055  
C243     C      0.350140000000     0.873470000000     0.964660000000     0.0268041  
C244     C      0.311350000000     0.834550000000     0.966580000000     0.0251242  
C245     C      0.373220000000     0.579790000000     0.464900000000     0.0277382  
C246     C      0.334250000000     0.618580000000     0.964950000000     0.0245491  
C247     C      0.311300000000     0.595620000000     0.965140000000     0.0247968  
C248     C      0.350110000000     0.556670000000     0.465160000000     0.0276939  
C249     C      0.079510000000     0.873480000000     0.465290000000     0.0295321  
C250     C      0.118320000000     0.834530000000     0.965430000000     0.0275005  
C251     C      0.095370000000     0.811570000000     0.964750000000     0.0276344  
C252     C      0.056400000000     0.850360000000     0.464820000000     0.0296389  
C253     C      0.095360000000     0.618530000000     0.463900000000     0.0266486  
C254     C      0.056410000000     0.579770000000     0.465880000000     0.0289645  
C255     C      0.079510000000     0.556640000000     0.465520000000     0.0292417  
C256     C      0.118300000000     0.595560000000     0.463480000000     0.0285439  
C257     C      0.334280000000     0.962210000000     0.811680000000     0.0283569  
C258     C      0.373230000000     0.463560000000     0.850460000000     0.0287966  
C259     C      0.350110000000     0.463660000000     0.873580000000     0.0280552  
C260     C      0.311320000000     0.962450000000     0.834630000000     0.0249358  
C261     C      0.095280000000     0.969210000000     0.811750000000     0.0292815  
C262     C      0.056390000000     0.966080000000     0.850490000000     0.0288136  
C263     C      0.079510000000     0.966060000000     0.873600000000     0.0284405  
C264     C      0.118250000000     0.969190000000     0.834700000000     0.0254598  
C265     C      0.118320000000     0.462370000000     0.595740000000     0.0261474  
C266     C      0.079540000000     0.963570000000     0.556770000000     0.0280468  
C267     C      0.056410000000     0.963640000000     0.579880000000     0.0278599  
C268     C      0.095350000000     0.462580000000     0.618690000000     0.0275625  
C269     C      0.373240000000     0.466930000000     0.579880000000     0.0280754  
C270     C      0.334280000000     0.466260000000     0.618690000000     0.0269246  
C271     C      0.311320000000     0.466260000000     0.595740000000     0.0251931  
C272     C      0.350110000000     0.466940000000     0.556770000000     0.0278058  
C273     C      0.464100000000     0.579770000000     0.873540000000     0.0281384  
C274     C      0.965940000000     0.618530000000     0.834590000000     0.0254181  
C275     C      0.966350000000     0.595560000000     0.811650000000     0.0263107  
C276     C      0.464450000000     0.556640000000     0.850440000000     0.0284916  
C277     C      0.965150000000     0.850330000000     0.873550000000     0.0277586  
C278     C      0.465210000000     0.811540000000     0.834580000000     0.0272447  
C279     C      0.464600000000     0.834500000000     0.811630000000     0.0272705  
C280     C      0.964730000000     0.873450000000     0.850440000000     0.0276652  
C281     C      0.963140000000     0.811560000000     0.595660000000     0.02611    
C282     C      0.964980000000     0.850340000000     0.556720000000     0.0274572  
C283     C      0.965320000000     0.873440000000     0.579850000000     0.0271754  
C284     C      0.963540000000     0.834500000000     0.618630000000     0.0252194  
C285     C      0.464800000000     0.556670000000     0.579870000000     0.0277884  
C286     C      0.464820000000     0.595620000000     0.618680000000     0.0262726  
C287     C      0.965010000000     0.618580000000     0.595730000000     0.0252491  
C288     C      0.965070000000     0.579790000000     0.556760000000     0.0268835  
C289     C      0.887680000000     0.966000000000     0.133860000000     0.379788   
C290     C      0.965700000000     0.042190000000     0.296460000000     0.379832   
C291     C      0.964660000000     0.042250000000     0.133860000000     0.378084   
C292     C      0.887660000000     0.963250000000     0.296470000000     0.381527   
C293     C      0.464130000000     0.387880000000     0.296450000000     0.381325   
C294     C      0.541970000000     0.463930000000     0.133860000000     0.38128    
C295     C      0.541950000000     0.467030000000     0.296500000000     0.382765   
C296     C      0.464830000000     0.387860000000     0.133850000000     0.379661   
C297     C      0.541990000000     0.133750000000     0.965230000000     0.378908   
C298     C      0.463810000000     0.296360000000     0.042290000000     0.380748   
C299     C      0.465140000000     0.133780000000     0.042340000000     0.379219   
C300     C      0.541990000000     0.296380000000     0.964220000000     0.380675   
C301     C      0.965670000000     0.296350000000     0.387960000000     0.380086   
C302     C      0.887650000000     0.133770000000     0.464870000000     0.380493   
C303     C      0.887690000000     0.296390000000     0.466270000000     0.382192   
C304     C      0.964670000000     0.133760000000     0.387940000000     0.378123   
C305     C      0.796120000000     0.042240000000     0.965270000000     0.378517   
C306     C      0.633530000000     0.963370000000     0.042360000000     0.379671   
C307     C      0.796120000000     0.966060000000     0.042350000000     0.378071   
C308     C      0.633490000000     0.042190000000     0.964180000000     0.38024    
C309     C      0.633500000000     0.466940000000     0.388030000000     0.381419   
C310     C      0.796150000000     0.387910000000     0.465240000000     0.380576   
C311     C      0.633500000000     0.387910000000     0.465970000000     0.382511   
C312     C      0.796120000000     0.463880000000     0.388000000000     0.37985    
C313     C      0.834310000000     0.311600000000     0.467000000000     0.0281563  
C314     C      0.873260000000     0.350360000000     0.465010000000     0.0287814  
C315     C      0.850140000000     0.373470000000     0.464660000000     0.0280459  
C316     C      0.811350000000     0.334550000000     0.466580000000     0.0263     
C317     C      0.873220000000     0.079790000000     0.964900000000     0.0270468  
C318     C      0.834250000000     0.118580000000     0.464950000000     0.0261095  
C319     C      0.811300000000     0.095620000000     0.465140000000     0.0264322  
C320     C      0.850110000000     0.056680000000     0.965160000000     0.0271273  
C321     C      0.579510000000     0.373480000000     0.965290000000     0.0275051  
C322     C      0.618320000000     0.334530000000     0.465430000000     0.0283907  
C323     C      0.595370000000     0.311570000000     0.464750000000     0.0283393  
C324     C      0.556400000000     0.350360000000     0.964820000000     0.0275535  
C325     C      0.595360000000     0.118530000000     0.963900000000     0.0252603  
C326     C      0.556410000000     0.079770000000     0.965880000000     0.0274275  
C327     C      0.579520000000     0.056640000000     0.965520000000     0.028083   
C328     C      0.618300000000     0.095560000000     0.963480000000     0.0274763  
C329     C      0.834280000000     0.462210000000     0.311680000000     0.0291706  
C330     C      0.873230000000     0.963560000000     0.350460000000     0.0279234  
C331     C      0.850110000000     0.963660000000     0.373580000000     0.0270116  
C332     C      0.811320000000     0.462450000000     0.334630000000     0.0257581  
C333     C      0.595280000000     0.469210000000     0.311750000000     0.029634   
C334     C      0.556390000000     0.466080000000     0.350490000000     0.0290064  
C335     C      0.579510000000     0.466060000000     0.373600000000     0.0286668  
C336     C      0.618250000000     0.469190000000     0.334700000000     0.0259454  
C337     C      0.618320000000     0.962370000000     0.095740000000     0.0256111  
C338     C      0.579540000000     0.463570000000     0.056770000000     0.0293906  
C339     C      0.556410000000     0.463650000000     0.079880000000     0.0289191  
C340     C      0.595350000000     0.962570000000     0.118690000000     0.0266272  
C341     C      0.873240000000     0.966930000000     0.079880000000     0.0280129  
C342     C      0.834280000000     0.966260000000     0.118690000000     0.0264536  
C343     C      0.811320000000     0.966260000000     0.095740000000     0.0248963  
C344     C      0.850110000000     0.966940000000     0.056770000000     0.0278232  
C345     C      0.964100000000     0.079770000000     0.373540000000     0.0277156  
C346     C      0.465940000000     0.118530000000     0.334590000000     0.0264694  
C347     C      0.466350000000     0.095560000000     0.311650000000     0.0274903  
C348     C      0.964450000000     0.056640000000     0.350440000000     0.0282793  
C349     C      0.465150000000     0.350330000000     0.373550000000     0.0287118  
C350     C      0.965210000000     0.311540000000     0.334580000000     0.02623    
C351     C      0.964600000000     0.334500000000     0.311630000000     0.0262375  
C352     C      0.464730000000     0.373450000000     0.350440000000     0.0285987  
C353     C      0.463140000000     0.311560000000     0.095660000000     0.0275919  
C354     C      0.464980000000     0.350330000000     0.056720000000     0.0296294  
C355     C      0.465320000000     0.373440000000     0.079850000000     0.0289781  
C356     C      0.463540000000     0.334500000000     0.118630000000     0.0264789  
C357     C      0.964800000000     0.056670000000     0.079870000000     0.0283989  
C358     C      0.964820000000     0.095630000000     0.118680000000     0.0260064  
C359     C      0.465010000000     0.118580000000     0.095730000000     0.0270523  
C360     C      0.465070000000     0.079790000000     0.056760000000     0.0294764  
C361     C      0.887680000000     0.966000000000     0.633860000000     0.379599   
C362     C      0.965700000000     0.042190000000     0.796460000000     0.379812   
C363     C      0.964660000000     0.042250000000     0.633860000000     0.377902   
C364     C      0.887660000000     0.963250000000     0.796470000000     0.381593   
C365     C      0.464130000000     0.387880000000     0.796450000000     0.381388   
C366     C      0.541970000000     0.463930000000     0.633860000000     0.381096   
C367     C      0.541950000000     0.467030000000     0.796500000000     0.382829   
C368     C      0.464830000000     0.387860000000     0.633850000000     0.379471   
C369     C      0.541990000000     0.133750000000     0.465230000000     0.380711   
C370     C      0.463810000000     0.296360000000     0.542290000000     0.381158   
C371     C      0.465140000000     0.133780000000     0.542340000000     0.379744   
C372     C      0.541990000000     0.296380000000     0.464210000000     0.382465   
C373     C      0.965670000000     0.296350000000     0.887960000000     0.379879   
C374     C      0.887650000000     0.133770000000     0.964870000000     0.378704   
C375     C      0.887690000000     0.296390000000     0.966270000000     0.380403   
C376     C      0.964670000000     0.133760000000     0.887940000000     0.377913   
C377     C      0.796120000000     0.042240000000     0.465270000000     0.38031    
C378     C      0.633530000000     0.963370000000     0.542360000000     0.380088   
C379     C      0.796120000000     0.966060000000     0.542350000000     0.378496   
C380     C      0.633490000000     0.042190000000     0.464180000000     0.382025   
C381     C      0.633500000000     0.466940000000     0.888030000000     0.381211   
C382     C      0.796150000000     0.387910000000     0.965240000000     0.378795   
C383     C      0.633500000000     0.387910000000     0.965970000000     0.38071    
C384     C      0.796120000000     0.463880000000     0.888000000000     0.379641   
C385     C      0.834310000000     0.311600000000     0.967000000000     0.0269569  
C386     C      0.873260000000     0.350360000000     0.965010000000     0.0274748  
C387     C      0.850140000000     0.373470000000     0.964660000000     0.0267366  
C388     C      0.811350000000     0.334550000000     0.966580000000     0.0251128  
C389     C      0.873220000000     0.079790000000     0.464900000000     0.0283753  
C390     C      0.834250000000     0.118580000000     0.964950000000     0.0248706  
C391     C      0.811300000000     0.095620000000     0.965140000000     0.0252513  
C392     C      0.850110000000     0.056680000000     0.465160000000     0.0284636  
C393     C      0.579510000000     0.373480000000     0.465290000000     0.0288344  
C394     C      0.618320000000     0.334530000000     0.965430000000     0.0271511  
C395     C      0.595370000000     0.311570000000     0.964750000000     0.0271809  
C396     C      0.556400000000     0.350360000000     0.464820000000     0.0288842  
C397     C      0.595360000000     0.118530000000     0.463900000000     0.0264834  
C398     C      0.556410000000     0.079770000000     0.465880000000     0.0287787  
C399     C      0.579520000000     0.056640000000     0.465520000000     0.0294299  
C400     C      0.618300000000     0.095560000000     0.463480000000     0.0286888  
C401     C      0.834280000000     0.462210000000     0.811680000000     0.0292379  
C402     C      0.873230000000     0.963560000000     0.850460000000     0.0279051  
C403     C      0.850110000000     0.963660000000     0.873580000000     0.0270866  
C404     C      0.811320000000     0.462450000000     0.834630000000     0.0258398  
C405     C      0.595280000000     0.469210000000     0.811750000000     0.0297012  
C406     C      0.556390000000     0.466080000000     0.850490000000     0.0289856  
C407     C      0.579510000000     0.466060000000     0.873600000000     0.0287385  
C408     C      0.618250000000     0.469190000000     0.834700000000     0.0260276  
C409     C      0.618320000000     0.962370000000     0.595740000000     0.0250407  
C410     C      0.579540000000     0.463570000000     0.556770000000     0.0283629  
C411     C      0.556410000000     0.463650000000     0.579880000000     0.0280503  
C412     C      0.595350000000     0.962570000000     0.618690000000     0.0262537  
C413     C      0.873240000000     0.966930000000     0.579880000000     0.0271374  
C414     C      0.834280000000     0.966260000000     0.618690000000     0.0260723  
C415     C      0.811320000000     0.966260000000     0.595740000000     0.0243257  
C416     C      0.850110000000     0.966940000000     0.556770000000     0.0267944  
C417     C      0.964100000000     0.079770000000     0.873540000000     0.0277894  
C418     C      0.465940000000     0.118530000000     0.834590000000     0.0265428  
C419     C      0.466350000000     0.095560000000     0.811650000000     0.0275771  
C420     C      0.964450000000     0.056640000000     0.850440000000     0.0282608  
C421     C      0.465150000000     0.350330000000     0.873550000000     0.0287855  
C422     C      0.965210000000     0.311540000000     0.834580000000     0.0263145  
C423     C      0.964600000000     0.334500000000     0.811630000000     0.0263061  
C424     C      0.464730000000     0.373450000000     0.850440000000     0.0285783  
C425     C      0.463140000000     0.311560000000     0.595660000000     0.0270096  
C426     C      0.464980000000     0.350330000000     0.556720000000     0.0285919  
C427     C      0.465320000000     0.373440000000     0.579850000000     0.0280988  
C428     C      0.463540000000     0.334500000000     0.618630000000     0.0260948  
C429     C      0.964800000000     0.056670000000     0.579870000000     0.027515   
C430     C      0.964820000000     0.095630000000     0.618680000000     0.0256597  
C431     C      0.465010000000     0.118580000000     0.595730000000     0.0264345  
C432     C      0.465070000000     0.079790000000     0.556760000000     0.028509   
C433     C      0.887680000000     0.466000000000     0.133860000000     0.380984   
C434     C      0.965700000000     0.542190000000     0.296460000000     0.37997    
C435     C      0.964660000000     0.542250000000     0.133860000000     0.378289   
C436     C      0.887660000000     0.463250000000     0.296470000000     0.382648   
C437     C      0.464130000000     0.887870000000     0.296450000000     0.381214   
C438     C      0.541970000000     0.963930000000     0.133860000000     0.380001   
C439     C      0.541950000000     0.967030000000     0.296500000000     0.381569   
C440     C      0.464830000000     0.887860000000     0.133850000000     0.379517   
C441     C      0.541990000000     0.633750000000     0.965230000000     0.378844   
C442     C      0.463810000000     0.796360000000     0.042290000000     0.380791   
C443     C      0.465140000000     0.633780000000     0.042340000000     0.37908    
C444     C      0.541990000000     0.796370000000     0.964220000000     0.380972   
C445     C      0.965670000000     0.796350000000     0.387960000000     0.379943   
C446     C      0.887650000000     0.633770000000     0.464870000000     0.38035    
C447     C      0.887690000000     0.796390000000     0.466270000000     0.382151   
C448     C      0.964670000000     0.633760000000     0.387940000000     0.377973   
C449     C      0.796120000000     0.542240000000     0.965270000000     0.378824   
C450     C      0.633530000000     0.463370000000     0.042360000000     0.38096    
C451     C      0.796120000000     0.466060000000     0.042350000000     0.379375   
C452     C      0.633490000000     0.542190000000     0.964180000000     0.38052    
C453     C      0.633500000000     0.966950000000     0.388030000000     0.380041   
C454     C      0.796150000000     0.887910000000     0.465240000000     0.380422   
C455     C      0.633500000000     0.887910000000     0.465970000000     0.382363   
C456     C      0.796120000000     0.963880000000     0.388000000000     0.378479   
C457     C      0.834310000000     0.811600000000     0.467000000000     0.0281989  
C458     C      0.873260000000     0.850360000000     0.465010000000     0.0287639  
C459     C      0.850140000000     0.873470000000     0.464660000000     0.0280958  
C460     C      0.811350000000     0.834550000000     0.466580000000     0.0263589  
C461     C      0.873220000000     0.579790000000     0.964900000000     0.0264608  
C462     C      0.834250000000     0.618580000000     0.464950000000     0.0258502  
C463     C      0.811300000000     0.595620000000     0.465140000000     0.0260293  
C464     C      0.850110000000     0.556670000000     0.965160000000     0.0263405  
C465     C      0.579510000000     0.873470000000     0.965290000000     0.0276109  
C466     C      0.618320000000     0.834530000000     0.465430000000     0.0284622  
C467     C      0.595370000000     0.811570000000     0.464750000000     0.0283557  
C468     C      0.556400000000     0.850360000000     0.964820000000     0.027508   
C469     C      0.595360000000     0.618530000000     0.963900000000     0.0249895  
C470     C      0.556410000000     0.579770000000     0.965880000000     0.0267971  
C471     C      0.579520000000     0.556640000000     0.965520000000     0.0273345  
C472     C      0.618300000000     0.595560000000     0.963480000000     0.0270494  
C473     C      0.834280000000     0.962210000000     0.311680000000     0.02835    
C474     C      0.873230000000     0.463560000000     0.350460000000     0.0288693  
C475     C      0.850110000000     0.463660000000     0.373580000000     0.0279664  
C476     C      0.811320000000     0.962450000000     0.334630000000     0.0249028  
C477     C      0.595280000000     0.969210000000     0.311750000000     0.0287653  
C478     C      0.556390000000     0.966080000000     0.350490000000     0.0280554  
C479     C      0.579510000000     0.966060000000     0.373600000000     0.0277063  
C480     C      0.618250000000     0.969190000000     0.334700000000     0.0250867  
C481     C      0.618320000000     0.462370000000     0.095740000000     0.0264607  
C482     C      0.579540000000     0.963570000000     0.056770000000     0.0284289  
C483     C      0.556410000000     0.963640000000     0.079880000000     0.0279711  
C484     C      0.595350000000     0.462580000000     0.118690000000     0.0275171  
C485     C      0.873240000000     0.466930000000     0.079880000000     0.0290032  
C486     C      0.834280000000     0.466260000000     0.118690000000     0.0273654  
C487     C      0.811320000000     0.466260000000     0.095740000000     0.0258117  
C488     C      0.850110000000     0.466940000000     0.056770000000     0.0288176  
C489     C      0.964100000000     0.579770000000     0.373540000000     0.0270923  
C490     C      0.465940000000     0.618530000000     0.334590000000     0.0262034  
C491     C      0.466350000000     0.595560000000     0.311650000000     0.0270778  
C492     C      0.964450000000     0.556640000000     0.350440000000     0.0275379  
C493     C      0.465150000000     0.850330000000     0.373550000000     0.0286843  
C494     C      0.965210000000     0.811540000000     0.334580000000     0.0262636  
C495     C      0.964600000000     0.834500000000     0.311630000000     0.0263039  
C496     C      0.464730000000     0.873450000000     0.350440000000     0.0286725  
C497     C      0.463140000000     0.811560000000     0.095660000000     0.0276328  
C498     C      0.464980000000     0.850340000000     0.056720000000     0.0295131  
C499     C      0.465320000000     0.873440000000     0.079850000000     0.0290712  
C500     C      0.463540000000     0.834500000000     0.118630000000     0.0265423  
C501     C      0.964800000000     0.556670000000     0.079870000000     0.027676   
C502     C      0.964820000000     0.595620000000     0.118680000000     0.0257015  
C503     C      0.465010000000     0.618580000000     0.095730000000     0.0267495  
C504     C      0.465070000000     0.579790000000     0.056760000000     0.0288546  
C505     C      0.887680000000     0.466000000000     0.633860000000     0.380795   
C506     C      0.965700000000     0.542190000000     0.796460000000     0.37995    
C507     C      0.964660000000     0.542250000000     0.633860000000     0.378107   
C508     C      0.887660000000     0.463250000000     0.796470000000     0.382714   
C509     C      0.464130000000     0.887870000000     0.796450000000     0.381278   
C510     C      0.541970000000     0.963930000000     0.633860000000     0.379816   
C511     C      0.541950000000     0.967030000000     0.796500000000     0.381634   
C512     C      0.464830000000     0.887860000000     0.633850000000     0.379327   
C513     C      0.541990000000     0.633750000000     0.465230000000     0.380647   
C514     C      0.463810000000     0.796360000000     0.542290000000     0.381199   
C515     C      0.465140000000     0.633780000000     0.542340000000     0.379598   
C516     C      0.541990000000     0.796370000000     0.464210000000     0.38276    
C517     C      0.965670000000     0.796350000000     0.887960000000     0.379737   
C518     C      0.887650000000     0.633770000000     0.964870000000     0.378559   
C519     C      0.887690000000     0.796390000000     0.966270000000     0.380363   
C520     C      0.964670000000     0.633760000000     0.887940000000     0.377763   
C521     C      0.796120000000     0.542240000000     0.465270000000     0.380623   
C522     C      0.633530000000     0.463370000000     0.542360000000     0.38138    
C523     C      0.796120000000     0.466060000000     0.542350000000     0.37981    
C524     C      0.633490000000     0.542190000000     0.464180000000     0.382312   
C525     C      0.633500000000     0.966950000000     0.888030000000     0.379834   
C526     C      0.796150000000     0.887910000000     0.965240000000     0.378646   
C527     C      0.633500000000     0.887910000000     0.965970000000     0.380564   
C528     C      0.796120000000     0.963880000000     0.888000000000     0.378272   
C529     C      0.834310000000     0.811600000000     0.967000000000     0.0270008  
C530     C      0.873260000000     0.850360000000     0.965010000000     0.0274596  
C531     C      0.850140000000     0.873470000000     0.964660000000     0.0267898  
C532     C      0.811350000000     0.834550000000     0.966580000000     0.025174   
C533     C      0.873220000000     0.579790000000     0.464900000000     0.0277906  
C534     C      0.834250000000     0.618580000000     0.964950000000     0.0246105  
C535     C      0.811300000000     0.595620000000     0.965140000000     0.0248472  
C536     C      0.850110000000     0.556670000000     0.465160000000     0.0276781  
C537     C      0.579510000000     0.873470000000     0.465290000000     0.0289377  
C538     C      0.618320000000     0.834530000000     0.965430000000     0.0272241  
C539     C      0.595370000000     0.811570000000     0.964750000000     0.0271992  
C540     C      0.556400000000     0.850360000000     0.464820000000     0.0288358  
C541     C      0.595360000000     0.618530000000     0.463900000000     0.0262138  
C542     C      0.556410000000     0.579770000000     0.465880000000     0.0281494  
C543     C      0.579520000000     0.556640000000     0.465520000000     0.0286833  
C544     C      0.618300000000     0.595560000000     0.463480000000     0.0282639  
C545     C      0.834280000000     0.962210000000     0.811680000000     0.0284186  
C546     C      0.873230000000     0.463560000000     0.850460000000     0.0288489  
C547     C      0.850110000000     0.463660000000     0.873580000000     0.0280391  
C548     C      0.811320000000     0.962450000000     0.834630000000     0.0249861  
C549     C      0.595280000000     0.969210000000     0.811750000000     0.0288341  
C550     C      0.556390000000     0.966080000000     0.850490000000     0.028037   
C551     C      0.579510000000     0.966060000000     0.873600000000     0.0277805  
C552     C      0.618250000000     0.969190000000     0.834700000000     0.025171   
C553     C      0.618320000000     0.462370000000     0.595740000000     0.02589    
C554     C      0.579540000000     0.963570000000     0.556770000000     0.0274016  
C555     C      0.556410000000     0.963640000000     0.579880000000     0.0271025  
C556     C      0.595350000000     0.462570000000     0.618690000000     0.0271442  
C557     C      0.873240000000     0.466930000000     0.579880000000     0.0281272  
C558     C      0.834280000000     0.466260000000     0.618690000000     0.026984   
C559     C      0.811320000000     0.466260000000     0.595740000000     0.0252422  
C560     C      0.850110000000     0.466940000000     0.556770000000     0.0277894  
C561     C      0.964100000000     0.579770000000     0.873540000000     0.0271663  
C562     C      0.465940000000     0.618530000000     0.834590000000     0.026277   
C563     C      0.466350000000     0.595560000000     0.811650000000     0.0271647  
C564     C      0.964450000000     0.556640000000     0.850440000000     0.0275196  
C565     C      0.465150000000     0.850330000000     0.873550000000     0.0287503  
C566     C      0.965210000000     0.811540000000     0.834580000000     0.0263381  
C567     C      0.964600000000     0.834500000000     0.811630000000     0.0263952  
C568     C      0.464730000000     0.873450000000     0.850440000000     0.0286562  
C569     C      0.463140000000     0.811560000000     0.595660000000     0.0270506  
C570     C      0.464980000000     0.850340000000     0.556720000000     0.0284762  
C571     C      0.465320000000     0.873440000000     0.579850000000     0.0281927  
C572     C      0.463540000000     0.834500000000     0.618630000000     0.0261584  
C573     C      0.964800000000     0.556670000000     0.579870000000     0.0267882  
C574     C      0.964820000000     0.595620000000     0.618680000000     0.0253532  
C575     C      0.465010000000     0.618580000000     0.595730000000     0.0261292  
C576     C      0.465070000000     0.579790000000     0.556760000000     0.0278825  
H1       H      0.416750000000     0.012740000000     0.259650000000     0.220813   
H2       H      0.013280000000     0.013600000000     0.168590000000     0.207394   
H3       H      0.012910000000     0.417370000000     0.259650000000     0.212217   
H4       H      0.416390000000     0.416510000000     0.168580000000     0.20537    
H5       H      0.020810000000     0.066180000000     0.212150000000     0.13677    
H6       H      0.070840000000     0.022720000000     0.211750000000     0.186761   
H7       H      0.061070000000     0.410470000000     0.197630000000     0.150239   
H8       H      0.016300000000     0.358040000000     0.234990000000     0.203562   
H9       H      0.408880000000     0.363870000000     0.211960000000     0.126597   
H10      H      0.358820000000     0.407360000000     0.212040000000     0.187505   
H11      H      0.368590000000     0.019540000000     0.197300000000     0.150428   
H12      H      0.413540000000     0.072150000000     0.235270000000     0.201553   
H13      H      0.018860000000     0.361030000000     0.196160000000     0.206685   
H14      H      0.335060000000     0.438170000000     0.215500000000     0.204759   
H15      H      0.410680000000     0.069030000000     0.196470000000     0.205355   
H16      H      0.094590000000     0.991940000000     0.215490000000     0.19526    
H17      H      0.012860000000     0.259500000000     0.012880000000     0.213738   
H18      H      0.416440000000     0.168540000000     0.013770000000     0.206867   
H19      H      0.416780000000     0.259510000000     0.417400000000     0.211259   
H20      H      0.013190000000     0.168540000000     0.416520000000     0.207304   
H21      H      0.408860000000     0.211970000000     0.066300000000     0.127558   
H22      H      0.358790000000     0.212330000000     0.022840000000     0.184966   
H23      H      0.368510000000     0.196670000000     0.410860000000     0.149043   
H24      H      0.413500000000     0.234950000000     0.357960000000     0.201607   
H25      H      0.020770000000     0.211790000000     0.363940000000     0.1358     
H26      H      0.070860000000     0.212640000000     0.407420000000     0.188297   
H27      H      0.061150000000     0.196320000000     0.019310000000     0.151701   
H28      H      0.015960000000     0.235230000000     0.072420000000     0.20426    
H29      H      0.410650000000     0.196180000000     0.361260000000     0.204603   
H30      H      0.094600000000     0.215800000000     0.438280000000     0.204302   
H31      H      0.019140000000     0.196490000000     0.068960000000     0.207514   
H32      H      0.335060000000     0.215770000000     0.992010000000     0.1898     
H33      H      0.170320000000     0.013060000000     0.012930000000     0.213296   
H34      H      0.261400000000     0.416800000000     0.013870000000     0.206666   
H35      H      0.170320000000     0.417070000000     0.417400000000     0.211328   
H36      H      0.261400000000     0.013350000000     0.416450000000     0.206266   
H37      H      0.217970000000     0.409110000000     0.066310000000     0.127635   
H38      H      0.217210000000     0.359050000000     0.022900000000     0.185062   
H39      H      0.233680000000     0.368740000000     0.411060000000     0.149245   
H40      H      0.193920000000     0.414410000000     0.357640000000     0.201221   
H41      H      0.217780000000     0.021050000000     0.364060000000     0.135288   
H42      H      0.217390000000     0.071060000000     0.407440000000     0.187847   
H43      H      0.233340000000     0.061380000000     0.019380000000     0.151028   
H44      H      0.194220000000     0.015930000000     0.072570000000     0.203628   
H45      H      0.232560000000     0.410400000000     0.361450000000     0.20427    
H46      H      0.214150000000     0.094800000000     0.438290000000     0.203706   
H47      H      0.232900000000     0.019590000000     0.068930000000     0.206887   
H48      H      0.214020000000     0.335320000000     0.992040000000     0.190108   
H49      H      0.326610000000     0.287530000000     0.467930000000     0.0359824  
H50      H      0.397440000000     0.357770000000     0.464320000000     0.0397273  
H51      H      0.357560000000     0.397630000000     0.463740000000     0.0396132  
H52      H      0.287260000000     0.326850000000     0.467260000000     0.0342319  
H53      H      0.397410000000     0.072370000000     0.964840000000     0.0385773  
H54      H      0.326540000000     0.142670000000     0.464890000000     0.0338724  
H55      H      0.287200000000     0.103330000000     0.465220000000     0.0338915  
H56      H      0.357550000000     0.032500000000     0.965230000000     0.039867   
H57      H      0.072080000000     0.397650000000     0.965460000000     0.0389777  
H58      H      0.142420000000     0.326820000000     0.465630000000     0.0367597  
H59      H      0.103090000000     0.287480000000     0.464580000000     0.0368696  
H60      H      0.032220000000     0.357780000000     0.964630000000     0.0404     
H61      H      0.103070000000     0.142610000000     0.963200000000     0.0332491  
H62      H      0.032250000000     0.072360000000     0.966820000000     0.0410957  
H63      H      0.072090000000     0.032480000000     0.966220000000     0.0411955  
H64      H      0.142380000000     0.103260000000     0.962520000000     0.0349635  
H65      H      0.326570000000     0.461600000000     0.287590000000     0.0371044  
H66      H      0.397410000000     0.964050000000     0.357890000000     0.0382894  
H67      H      0.357540000000     0.964260000000     0.397750000000     0.0382003  
H68      H      0.287220000000     0.461950000000     0.326930000000     0.0391154  
H69      H      0.102970000000     0.470520000000     0.287680000000     0.0373027  
H70      H      0.032230000000     0.464780000000     0.357890000000     0.0421683  
H71      H      0.072110000000     0.464750000000     0.397750000000     0.0408017  
H72      H      0.142310000000     0.470460000000     0.327020000000     0.0398241  
H73      H      0.142410000000     0.961860000000     0.103450000000     0.0381962  
H74      H      0.072120000000     0.464000000000     0.032590000000     0.0437868  
H75      H      0.032240000000     0.464180000000     0.072450000000     0.043092   
H76      H      0.103050000000     0.962150000000     0.142790000000     0.034552   
H77      H      0.397410000000     0.967190000000     0.072440000000     0.0394875  
H78      H      0.326580000000     0.965990000000     0.142780000000     0.0339625  
H79      H      0.287230000000     0.966010000000     0.103450000000     0.0379234  
H80      H      0.357530000000     0.967200000000     0.032590000000     0.0413745  
H81      H      0.463230000000     0.072370000000     0.397700000000     0.0405493  
H82      H      0.966570000000     0.142610000000     0.326870000000     0.0395285  
H83      H      0.967210000000     0.103260000000     0.287570000000     0.0395083  
H84      H      0.463800000000     0.032480000000     0.357860000000     0.0419763  
H85      H      0.965320000000     0.357750000000     0.397730000000     0.0384422  
H86      H      0.465360000000     0.287450000000     0.326860000000     0.0397936  
H87      H      0.464440000000     0.326790000000     0.287540000000     0.0398192  
H88      H      0.964570000000     0.397620000000     0.357870000000     0.0384735  
H89      H      0.962290000000     0.287490000000     0.103370000000     0.0391503  
H90      H      0.965610000000     0.357750000000     0.032550000000     0.0415573  
H91      H      0.966190000000     0.397600000000     0.072430000000     0.0396028  
H92      H      0.962930000000     0.326800000000     0.142710000000     0.0392332  
H93      H      0.464740000000     0.032500000000     0.072440000000     0.0429159  
H94      H      0.464730000000     0.103330000000     0.142770000000     0.0400923  
H95      H      0.965080000000     0.142670000000     0.103440000000     0.0390733  
H96      H      0.965140000000     0.072370000000     0.032580000000     0.0421491  
H97      H      0.416750000000     0.012740000000     0.759650000000     0.220685   
H98      H      0.013280000000     0.013600000000     0.668590000000     0.207248   
H99      H      0.012910000000     0.417370000000     0.759650000000     0.212253   
H100     H      0.416390000000     0.416510000000     0.668580000000     0.205208   
H101     H      0.020810000000     0.066180000000     0.712150000000     0.136709   
H102     H      0.070840000000     0.022720000000     0.711750000000     0.186667   
H103     H      0.061070000000     0.410470000000     0.697630000000     0.150107   
H104     H      0.016300000000     0.358040000000     0.734990000000     0.203551   
H105     H      0.408880000000     0.363870000000     0.711960000000     0.126491   
H106     H      0.358820000000     0.407360000000     0.712040000000     0.187391   
H107     H      0.368590000000     0.019540000000     0.697300000000     0.150295   
H108     H      0.413540000000     0.072150000000     0.735270000000     0.201543   
H109     H      0.018860000000     0.361030000000     0.696160000000     0.206518   
H110     H      0.335060000000     0.438170000000     0.715500000000     0.204695   
H111     H      0.410680000000     0.069030000000     0.696470000000     0.205186   
H112     H      0.094590000000     0.991940000000     0.715490000000     0.195203   
H113     H      0.012860000000     0.259500000000     0.512880000000     0.212415   
H114     H      0.416440000000     0.168540000000     0.513770000000     0.205318   
H115     H      0.416780000000     0.259510000000     0.917400000000     0.211362   
H116     H      0.013190000000     0.168540000000     0.916520000000     0.207407   
H117     H      0.408860000000     0.211970000000     0.566300000000     0.126276   
H118     H      0.358790000000     0.212330000000     0.522840000000     0.186905   
H119     H      0.368510000000     0.196670000000     0.910860000000     0.149165   
H120     H      0.413500000000     0.234950000000     0.857960000000     0.201713   
H121     H      0.020770000000     0.211790000000     0.863940000000     0.135998   
H122     H      0.070860000000     0.212640000000     0.907420000000     0.188233   
H123     H      0.061160000000     0.196320000000     0.519310000000     0.150012   
H124     H      0.015960000000     0.235230000000     0.572420000000     0.203355   
H125     H      0.410650000000     0.196180000000     0.861260000000     0.204724   
H126     H      0.094600000000     0.215800000000     0.938280000000     0.202778   
H127     H      0.019140000000     0.196490000000     0.568960000000     0.206521   
H128     H      0.335060000000     0.215770000000     0.492010000000     0.203434   
H129     H      0.170320000000     0.013060000000     0.512930000000     0.211971   
H130     H      0.261400000000     0.416790000000     0.513870000000     0.205088   
H131     H      0.170320000000     0.417070000000     0.917400000000     0.211429   
H132     H      0.261400000000     0.013350000000     0.916450000000     0.206371   
H133     H      0.217970000000     0.409110000000     0.566310000000     0.12635    
H134     H      0.217210000000     0.359050000000     0.522900000000     0.18699    
H135     H      0.233680000000     0.368740000000     0.911060000000     0.149372   
H136     H      0.193920000000     0.414410000000     0.857640000000     0.201328   
H137     H      0.217780000000     0.021050000000     0.864060000000     0.135398   
H138     H      0.217390000000     0.071060000000     0.907440000000     0.187569   
H139     H      0.233340000000     0.061380000000     0.519380000000     0.149287   
H140     H      0.194220000000     0.015930000000     0.572570000000     0.202734   
H141     H      0.232560000000     0.410400000000     0.861450000000     0.204391   
H142     H      0.214150000000     0.094800000000     0.938290000000     0.20221    
H143     H      0.232900000000     0.019590000000     0.568930000000     0.205889   
H144     H      0.214020000000     0.335320000000     0.492040000000     0.203734   
H145     H      0.326610000000     0.287530000000     0.967930000000     0.0348692  
H146     H      0.397440000000     0.357770000000     0.964320000000     0.0380623  
H147     H      0.357560000000     0.397630000000     0.963740000000     0.0379806  
H148     H      0.287260000000     0.326850000000     0.967260000000     0.0330713  
H149     H      0.397410000000     0.072370000000     0.464840000000     0.0402919  
H150     H      0.326540000000     0.142670000000     0.964890000000     0.0327401  
H151     H      0.287200000000     0.103330000000     0.965220000000     0.0325342  
H152     H      0.357550000000     0.032500000000     0.465220000000     0.0416036  
H153     H      0.072080000000     0.397650000000     0.465460000000     0.0407238  
H154     H      0.142420000000     0.326820000000     0.965630000000     0.0356806  
H155     H      0.103090000000     0.287480000000     0.964580000000     0.0355518  
H156     H      0.032220000000     0.357780000000     0.464630000000     0.0421004  
H157     H      0.103070000000     0.142610000000     0.463200000000     0.0345635  
H158     H      0.032250000000     0.072360000000     0.466820000000     0.0429128  
H159     H      0.072090000000     0.032480000000     0.466220000000     0.042976   
H160     H      0.142380000000     0.103260000000     0.462520000000     0.0362475  
H161     H      0.326570000000     0.461600000000     0.787590000000     0.0371406  
H162     H      0.397410000000     0.964050000000     0.857890000000     0.0380554  
H163     H      0.357540000000     0.964260000000     0.897750000000     0.0377026  
H164     H      0.287220000000     0.461950000000     0.826930000000     0.0391813  
H165     H      0.102970000000     0.470520000000     0.787680000000     0.0373394  
H166     H      0.032230000000     0.464780000000     0.857890000000     0.04193    
H167     H      0.072110000000     0.464750000000     0.897750000000     0.040301   
H168     H      0.142310000000     0.470460000000     0.827020000000     0.0398916  
H169     H      0.142410000000     0.961860000000     0.603450000000     0.0379487  
H170     H      0.072120000000     0.464000000000     0.532590000000     0.0406301  
H171     H      0.032240000000     0.464180000000     0.572450000000     0.0417941  
H172     H      0.103050000000     0.962150000000     0.642790000000     0.0344345  
H173     H      0.397410000000     0.967190000000     0.572440000000     0.0381738  
H174     H      0.326580000000     0.965990000000     0.642780000000     0.0338378  
H175     H      0.287230000000     0.966010000000     0.603450000000     0.0376795  
H176     H      0.357530000000     0.967200000000     0.532590000000     0.0382159  
H177     H      0.463230000000     0.072370000000     0.897700000000     0.0400498  
H178     H      0.966570000000     0.142610000000     0.826870000000     0.0395975  
H179     H      0.967210000000     0.103260000000     0.787560000000     0.0395443  
H180     H      0.463800000000     0.032480000000     0.857860000000     0.0417466  
H181     H      0.965320000000     0.357750000000     0.897730000000     0.0379458  
H182     H      0.465360000000     0.287450000000     0.826860000000     0.03986    
H183     H      0.464440000000     0.326790000000     0.787540000000     0.0398559  
H184     H      0.964570000000     0.397620000000     0.857870000000     0.0382391  
H185     H      0.962290000000     0.287490000000     0.603370000000     0.0388962  
H186     H      0.965610000000     0.357750000000     0.532550000000     0.0383961  
H187     H      0.966190000000     0.397600000000     0.572430000000     0.0382881  
H188     H      0.962930000000     0.326800000000     0.642710000000     0.0391046  
H189     H      0.464740000000     0.032500000000     0.572440000000     0.041623   
H190     H      0.464730000000     0.103330000000     0.642770000000     0.0399704  
H191     H      0.965080000000     0.142670000000     0.603440000000     0.0388516  
H192     H      0.965140000000     0.072370000000     0.532580000000     0.0389884  
H193     H      0.416750000000     0.512740000000     0.259650000000     0.211034   
H194     H      0.013280000000     0.513600000000     0.168590000000     0.206425   
H195     H      0.012910000000     0.917370000000     0.259650000000     0.212281   
H196     H      0.416390000000     0.916510000000     0.168580000000     0.20542    
H197     H      0.020810000000     0.566180000000     0.212150000000     0.135891   
H198     H      0.070840000000     0.522720000000     0.211750000000     0.188185   
H199     H      0.061070000000     0.910470000000     0.197630000000     0.150324   
H200     H      0.016300000000     0.858040000000     0.234990000000     0.203635   
H201     H      0.408880000000     0.863870000000     0.211960000000     0.126705   
H202     H      0.358820000000     0.907360000000     0.212040000000     0.187484   
H203     H      0.368590000000     0.519540000000     0.197300000000     0.149169   
H204     H      0.413540000000     0.572150000000     0.235270000000     0.20092    
H205     H      0.018860000000     0.861030000000     0.196160000000     0.206771   
H206     H      0.335060000000     0.938170000000     0.215500000000     0.203686   
H207     H      0.410680000000     0.569030000000     0.196470000000     0.204654   
H208     H      0.094590000000     0.491940000000     0.215490000000     0.205062   
H209     H      0.012860000000     0.759500000000     0.012880000000     0.213756   
H210     H      0.416440000000     0.668540000000     0.013770000000     0.206632   
H211     H      0.416780000000     0.759510000000     0.417400000000     0.211277   
H212     H      0.013190000000     0.668540000000     0.416520000000     0.207204   
H213     H      0.408860000000     0.711970000000     0.066300000000     0.127511   
H214     H      0.358790000000     0.712330000000     0.022840000000     0.184897   
H215     H      0.368510000000     0.696670000000     0.410860000000     0.148944   
H216     H      0.413500000000     0.734950000000     0.357960000000     0.2016     
H217     H      0.020770000000     0.711790000000     0.363940000000     0.135741   
H218     H      0.070860000000     0.712640000000     0.407420000000     0.188217   
H219     H      0.061150000000     0.696320000000     0.019310000000     0.151608   
H220     H      0.015960000000     0.735230000000     0.072420000000     0.204252   
H221     H      0.410650000000     0.696180000000     0.361260000000     0.204489   
H222     H      0.094600000000     0.715800000000     0.438280000000     0.204259   
H223     H      0.019140000000     0.696490000000     0.068960000000     0.207401   
H224     H      0.335060000000     0.715770000000     0.992010000000     0.18976    
H225     H      0.170320000000     0.513060000000     0.012930000000     0.212421   
H226     H      0.261400000000     0.916790000000     0.013870000000     0.206593   
H227     H      0.170320000000     0.917070000000     0.417400000000     0.211448   
H228     H      0.261400000000     0.513350000000     0.416450000000     0.205061   
H229     H      0.217970000000     0.909110000000     0.066310000000     0.127945   
H230     H      0.217210000000     0.859050000000     0.022900000000     0.185175   
H231     H      0.233680000000     0.868740000000     0.411060000000     0.149342   
H232     H      0.193920000000     0.914410000000     0.357640000000     0.201118   
H233     H      0.217780000000     0.521050000000     0.364060000000     0.126384   
H234     H      0.217390000000     0.571060000000     0.407440000000     0.186953   
H235     H      0.233340000000     0.561380000000     0.019380000000     0.150428   
H236     H      0.194220000000     0.515930000000     0.072570000000     0.201574   
H237     H      0.232560000000     0.910400000000     0.361450000000     0.204173   
H238     H      0.214150000000     0.594800000000     0.438290000000     0.20341    
H239     H      0.232900000000     0.519590000000     0.068930000000     0.205161   
H240     H      0.214020000000     0.835320000000     0.992040000000     0.190162   
H241     H      0.326610000000     0.787530000000     0.467930000000     0.0360115  
H242     H      0.397440000000     0.857770000000     0.464320000000     0.0395631  
H243     H      0.357560000000     0.897630000000     0.463740000000     0.0392484  
H244     H      0.287260000000     0.826850000000     0.467260000000     0.0342775  
H245     H      0.397410000000     0.572370000000     0.964840000000     0.0376314  
H246     H      0.326540000000     0.642670000000     0.464890000000     0.0337915  
H247     H      0.287200000000     0.603330000000     0.465220000000     0.0337301  
H248     H      0.357550000000     0.532500000000     0.965230000000     0.0376069  
H249     H      0.072080000000     0.897650000000     0.965460000000     0.0386195  
H250     H      0.142420000000     0.826820000000     0.465630000000     0.0368046  
H251     H      0.103090000000     0.787490000000     0.464580000000     0.036904   
H252     H      0.032220000000     0.857780000000     0.964630000000     0.0402305  
H253     H      0.103070000000     0.642610000000     0.963200000000     0.0331592  
H254     H      0.032250000000     0.572360000000     0.966820000000     0.0401536  
H255     H      0.072090000000     0.532480000000     0.966220000000     0.0389344  
H256     H      0.142380000000     0.603260000000     0.962520000000     0.0347815  
H257     H      0.326570000000     0.961600000000     0.287590000000     0.0361765  
H258     H      0.397410000000     0.464050000000     0.357890000000     0.0395628  
H259     H      0.357540000000     0.464260000000     0.397750000000     0.0394491  
H260     H      0.287220000000     0.961950000000     0.326930000000     0.0385043  
H261     H      0.102970000000     0.970520000000     0.287680000000     0.0364436  
H262     H      0.032230000000     0.964790000000     0.357890000000     0.0409567  
H263     H      0.072110000000     0.964750000000     0.397750000000     0.0396132  
H264     H      0.142310000000     0.970460000000     0.327020000000     0.0391102  
H265     H      0.142410000000     0.461860000000     0.103450000000     0.0391804  
H266     H      0.072120000000     0.964000000000     0.032590000000     0.042547   
H267     H      0.032240000000     0.964180000000     0.072450000000     0.0418404  
H268     H      0.103050000000     0.462150000000     0.142790000000     0.035337   
H269     H      0.397410000000     0.467190000000     0.072440000000     0.0407918  
H270     H      0.326580000000     0.465990000000     0.142780000000     0.0350179  
H271     H      0.287230000000     0.466010000000     0.103450000000     0.0389961  
H272     H      0.357530000000     0.467200000000     0.032590000000     0.0426772  
H273     H      0.463230000000     0.572370000000     0.397700000000     0.0396101  
H274     H      0.966570000000     0.642610000000     0.326870000000     0.0394423  
H275     H      0.967210000000     0.603260000000     0.287570000000     0.0393596  
H276     H      0.463800000000     0.532480000000     0.357860000000     0.0397374  
H277     H      0.965320000000     0.857750000000     0.397730000000     0.0382783  
H278     H      0.465360000000     0.787450000000     0.326860000000     0.0398182  
H279     H      0.464440000000     0.826790000000     0.287540000000     0.0398587  
H280     H      0.964570000000     0.897620000000     0.357870000000     0.0380903  
H281     H      0.962290000000     0.787490000000     0.103370000000     0.0391784  
H282     H      0.965610000000     0.857750000000     0.032550000000     0.0414192  
H283     H      0.966190000000     0.897600000000     0.072430000000     0.0392317  
H284     H      0.962930000000     0.826800000000     0.142710000000     0.0392785  
H285     H      0.464740000000     0.532500000000     0.072440000000     0.0406571  
H286     H      0.464730000000     0.603330000000     0.142770000000     0.0399127  
H287     H      0.965080000000     0.642670000000     0.103440000000     0.0390047  
H288     H      0.965140000000     0.572370000000     0.032580000000     0.0412251  
H289     H      0.416750000000     0.512740000000     0.759650000000     0.21091    
H290     H      0.013280000000     0.513600000000     0.668590000000     0.206277   
H291     H      0.012910000000     0.917370000000     0.759650000000     0.212317   
H292     H      0.416390000000     0.916510000000     0.668580000000     0.205257   
H293     H      0.020810000000     0.566180000000     0.712150000000     0.13583    
H294     H      0.070840000000     0.522720000000     0.711750000000     0.188091   
H295     H      0.061070000000     0.910470000000     0.697630000000     0.150191   
H296     H      0.016300000000     0.858040000000     0.734990000000     0.203623   
H297     H      0.408880000000     0.863870000000     0.711960000000     0.126599   
H298     H      0.358820000000     0.907360000000     0.712040000000     0.187374   
H299     H      0.368590000000     0.519540000000     0.697300000000     0.149034   
H300     H      0.413540000000     0.572150000000     0.735270000000     0.20091    
H301     H      0.018860000000     0.861030000000     0.696160000000     0.206604   
H302     H      0.335060000000     0.938170000000     0.715490000000     0.203636   
H303     H      0.410680000000     0.569030000000     0.696470000000     0.204483   
H304     H      0.094590000000     0.491940000000     0.715490000000     0.205009   
H305     H      0.012860000000     0.759500000000     0.512880000000     0.212434   
H306     H      0.416440000000     0.668540000000     0.513770000000     0.205224   
H307     H      0.416780000000     0.759510000000     0.917400000000     0.211382   
H308     H      0.013190000000     0.668540000000     0.916520000000     0.207306   
H309     H      0.408860000000     0.711970000000     0.566300000000     0.126228   
H310     H      0.358790000000     0.712330000000     0.522840000000     0.18684    
H311     H      0.368510000000     0.696670000000     0.910860000000     0.149066   
H312     H      0.413500000000     0.734950000000     0.857960000000     0.201708   
H313     H      0.020770000000     0.711790000000     0.863940000000     0.135939   
H314     H      0.070860000000     0.712640000000     0.907420000000     0.188153   
H315     H      0.061160000000     0.696320000000     0.519310000000     0.149916   
H316     H      0.015960000000     0.735230000000     0.572420000000     0.203348   
H317     H      0.410650000000     0.696180000000     0.861260000000     0.204609   
H318     H      0.094600000000     0.715800000000     0.938280000000     0.202734   
H319     H      0.019140000000     0.696490000000     0.568960000000     0.206407   
H320     H      0.335060000000     0.715770000000     0.492010000000     0.203399   
H321     H      0.170320000000     0.513060000000     0.512930000000     0.21109    
H322     H      0.261400000000     0.916790000000     0.513870000000     0.205162   
H323     H      0.170320000000     0.917070000000     0.917400000000     0.21155    
H324     H      0.261400000000     0.513350000000     0.916450000000     0.205166   
H325     H      0.217970000000     0.909110000000     0.566310000000     0.12666    
H326     H      0.217210000000     0.859050000000     0.522900000000     0.187101   
H327     H      0.233680000000     0.868740000000     0.911060000000     0.149469   
H328     H      0.193920000000     0.914410000000     0.857640000000     0.201223   
H329     H      0.217780000000     0.521050000000     0.864060000000     0.126504   
H330     H      0.217390000000     0.571060000000     0.907440000000     0.186673   
H331     H      0.233340000000     0.561380000000     0.519380000000     0.148682   
H332     H      0.194220000000     0.515930000000     0.572570000000     0.200674   
H333     H      0.232560000000     0.910400000000     0.861450000000     0.204294   
H334     H      0.214150000000     0.594800000000     0.938290000000     0.201912   
H335     H      0.232900000000     0.519590000000     0.568930000000     0.204156   
H336     H      0.214020000000     0.835320000000     0.492040000000     0.203774   
H337     H      0.326610000000     0.787530000000     0.967930000000     0.0348993  
H338     H      0.397440000000     0.857770000000     0.964320000000     0.0379019  
H339     H      0.357560000000     0.897630000000     0.963740000000     0.0376215  
H340     H      0.287260000000     0.826850000000     0.967260000000     0.0331182  
H341     H      0.397410000000     0.572370000000     0.464840000000     0.039348   
H342     H      0.326540000000     0.642670000000     0.964890000000     0.032659   
H343     H      0.287200000000     0.603330000000     0.965220000000     0.0323717  
H344     H      0.357550000000     0.532500000000     0.465220000000     0.0393439  
H345     H      0.072080000000     0.897650000000     0.465460000000     0.0403597  
H346     H      0.142420000000     0.826820000000     0.965630000000     0.0357267  
H347     H      0.103090000000     0.787490000000     0.964580000000     0.0355869  
H348     H      0.032220000000     0.857780000000     0.464630000000     0.0419271  
H349     H      0.103070000000     0.642610000000     0.463200000000     0.0344741  
H350     H      0.032250000000     0.572360000000     0.466820000000     0.0419731  
H351     H      0.072090000000     0.532480000000     0.466220000000     0.040716   
H352     H      0.142380000000     0.603260000000     0.462520000000     0.0360668  
H353     H      0.326570000000     0.961600000000     0.787590000000     0.0362168  
H354     H      0.397410000000     0.464050000000     0.857890000000     0.0393252  
H355     H      0.357540000000     0.464260000000     0.897750000000     0.0389461  
H356     H      0.287220000000     0.961950000000     0.826930000000     0.0385717  
H357     H      0.102970000000     0.970520000000     0.787680000000     0.0364812  
H358     H      0.032230000000     0.964790000000     0.857890000000     0.0407219  
H359     H      0.072110000000     0.964750000000     0.897750000000     0.0391181  
H360     H      0.142310000000     0.970460000000     0.827020000000     0.0391796  
H361     H      0.142410000000     0.461860000000     0.603450000000     0.0389335  
H362     H      0.072120000000     0.964000000000     0.532590000000     0.0393929  
H363     H      0.032240000000     0.964180000000     0.572450000000     0.0405425  
H364     H      0.103050000000     0.462150000000     0.642790000000     0.0352196  
H365     H      0.397410000000     0.467190000000     0.572440000000     0.0394783  
H366     H      0.326580000000     0.465990000000     0.642780000000     0.034897   
H367     H      0.287230000000     0.466010000000     0.603450000000     0.0387533  
H368     H      0.357530000000     0.467200000000     0.532590000000     0.0395158  
H369     H      0.463230000000     0.572370000000     0.897700000000     0.0391099  
H370     H      0.966570000000     0.642610000000     0.826870000000     0.0395112  
H371     H      0.967210000000     0.603260000000     0.787560000000     0.0393955  
H372     H      0.463800000000     0.532480000000     0.857860000000     0.0395081  
H373     H      0.965320000000     0.857750000000     0.897730000000     0.0377839  
H374     H      0.465360000000     0.787450000000     0.826860000000     0.039888   
H375     H      0.464440000000     0.826790000000     0.787530000000     0.0398914  
H376     H      0.964570000000     0.897620000000     0.857870000000     0.0378572  
H377     H      0.962290000000     0.787490000000     0.603370000000     0.0389243  
H378     H      0.965610000000     0.857750000000     0.532550000000     0.0382599  
H379     H      0.966190000000     0.897600000000     0.572430000000     0.0379177  
H380     H      0.962930000000     0.826800000000     0.642710000000     0.0391496  
H381     H      0.464740000000     0.532500000000     0.572440000000     0.0393537  
H382     H      0.464730000000     0.603330000000     0.642770000000     0.0397904  
H383     H      0.965080000000     0.642670000000     0.603440000000     0.0387827  
H384     H      0.965140000000     0.572370000000     0.532580000000     0.0380534  
H385     H      0.916750000000     0.012740000000     0.259650000000     0.220912   
H386     H      0.513280000000     0.013600000000     0.168590000000     0.206153   
H387     H      0.512910000000     0.417370000000     0.259650000000     0.211273   
H388     H      0.916390000000     0.416510000000     0.168580000000     0.205447   
H389     H      0.520810000000     0.066180000000     0.212150000000     0.127545   
H390     H      0.570840000000     0.022720000000     0.211740000000     0.185805   
H391     H      0.561070000000     0.410470000000     0.197630000000     0.149634   
H392     H      0.516290000000     0.358040000000     0.234990000000     0.201537   
H393     H      0.908880000000     0.363870000000     0.211960000000     0.126915   
H394     H      0.858820000000     0.407360000000     0.212040000000     0.187622   
H395     H      0.868590000000     0.019540000000     0.197300000000     0.150526   
H396     H      0.913540000000     0.072150000000     0.235270000000     0.20144    
H397     H      0.518860000000     0.361030000000     0.196160000000     0.204905   
H398     H      0.835060000000     0.438170000000     0.215490000000     0.204813   
H399     H      0.910680000000     0.069030000000     0.196470000000     0.205251   
H400     H      0.594590000000     0.991940000000     0.215490000000     0.194926   
H401     H      0.512860000000     0.259500000000     0.012880000000     0.212812   
H402     H      0.916440000000     0.168540000000     0.013770000000     0.206944   
H403     H      0.916780000000     0.259510000000     0.417400000000     0.211378   
H404     H      0.513190000000     0.168540000000     0.416520000000     0.206047   
H405     H      0.908860000000     0.211970000000     0.066300000000     0.127883   
H406     H      0.858790000000     0.212320000000     0.022840000000     0.184852   
H407     H      0.868510000000     0.196670000000     0.410860000000     0.149142   
H408     H      0.913500000000     0.234950000000     0.357960000000     0.201485   
H409     H      0.520760000000     0.211790000000     0.363940000000     0.126679   
H410     H      0.570860000000     0.212640000000     0.407420000000     0.187359   
H411     H      0.561150000000     0.196320000000     0.019310000000     0.151032   
H412     H      0.515960000000     0.235230000000     0.072420000000     0.20216    
H413     H      0.910650000000     0.196180000000     0.361260000000     0.204506   
H414     H      0.594600000000     0.215800000000     0.438280000000     0.203996   
H415     H      0.519140000000     0.196490000000     0.068960000000     0.205698   
H416     H      0.835060000000     0.215770000000     0.992010000000     0.189876   
H417     H      0.670320000000     0.013060000000     0.012930000000     0.213212   
H418     H      0.761400000000     0.416800000000     0.013870000000     0.20669    
H419     H      0.670320000000     0.417070000000     0.417400000000     0.211235   
H420     H      0.761400000000     0.013350000000     0.416450000000     0.20629    
H421     H      0.717970000000     0.409110000000     0.066310000000     0.127603   
H422     H      0.717210000000     0.359050000000     0.022900000000     0.185007   
H423     H      0.733680000000     0.368740000000     0.411060000000     0.149263   
H424     H      0.693930000000     0.414410000000     0.357640000000     0.201298   
H425     H      0.717780000000     0.021050000000     0.364060000000     0.135245   
H426     H      0.717390000000     0.071060000000     0.407440000000     0.187779   
H427     H      0.733340000000     0.061380000000     0.019380000000     0.151051   
H428     H      0.694220000000     0.015930000000     0.072570000000     0.203439   
H429     H      0.732560000000     0.410400000000     0.361450000000     0.204315   
H430     H      0.714150000000     0.094800000000     0.438290000000     0.203658   
H431     H      0.732910000000     0.019590000000     0.068930000000     0.206671   
H432     H      0.714020000000     0.335320000000     0.992040000000     0.190061   
H433     H      0.826610000000     0.287530000000     0.467930000000     0.0360326  
H434     H      0.897440000000     0.357770000000     0.464320000000     0.039351   
H435     H      0.857560000000     0.397630000000     0.463740000000     0.0394336  
H436     H      0.787260000000     0.326850000000     0.467260000000     0.0342593  
H437     H      0.897410000000     0.072370000000     0.964840000000     0.0382055  
H438     H      0.826540000000     0.142670000000     0.464890000000     0.0339198  
H439     H      0.787200000000     0.103330000000     0.465220000000     0.0339182  
H440     H      0.857550000000     0.032500000000     0.965230000000     0.0396904  
H441     H      0.572080000000     0.397650000000     0.965460000000     0.0380028  
H442     H      0.642420000000     0.326820000000     0.465630000000     0.0366719  
H443     H      0.603090000000     0.287480000000     0.464580000000     0.0366876  
H444     H      0.532220000000     0.357780000000     0.964630000000     0.0380399  
H445     H      0.603070000000     0.142610000000     0.963200000000     0.0330772  
H446     H      0.532250000000     0.072360000000     0.966820000000     0.0387574  
H447     H      0.572090000000     0.032480000000     0.966220000000     0.0401919  
H448     H      0.642380000000     0.103260000000     0.962520000000     0.0348719  
H449     H      0.826570000000     0.461600000000     0.287590000000     0.037156   
H450     H      0.897410000000     0.964050000000     0.357890000000     0.0379173  
H451     H      0.857540000000     0.964260000000     0.397750000000     0.0380245  
H452     H      0.787220000000     0.461950000000     0.326930000000     0.0391402  
H453     H      0.602970000000     0.470520000000     0.287680000000     0.0370988  
H454     H      0.532230000000     0.464780000000     0.357890000000     0.0398086  
H455     H      0.572110000000     0.464750000000     0.397750000000     0.0398244  
H456     H      0.642310000000     0.470460000000     0.327020000000     0.0397281  
H457     H      0.642410000000     0.961860000000     0.103450000000     0.038108   
H458     H      0.572120000000     0.464000000000     0.032590000000     0.0428232  
H459     H      0.532240000000     0.464180000000     0.072450000000     0.0407466  
H460     H      0.603050000000     0.962150000000     0.142790000000     0.0343852  
H461     H      0.897410000000     0.967190000000     0.072440000000     0.0391158  
H462     H      0.826580000000     0.965990000000     0.142780000000     0.0340088  
H463     H      0.787230000000     0.966010000000     0.103450000000     0.0379519  
H464     H      0.857530000000     0.967200000000     0.032590000000     0.0411971  
H465     H      0.963230000000     0.072370000000     0.397700000000     0.0393302  
H466     H      0.466570000000     0.142610000000     0.326870000000     0.0402211  
H467     H      0.467210000000     0.103260000000     0.287570000000     0.0401878  
H468     H      0.963800000000     0.032480000000     0.357860000000     0.0407329  
H469     H      0.465320000000     0.357750000000     0.397730000000     0.0397469  
H470     H      0.965360000000     0.287450000000     0.326860000000     0.0391031  
H471     H      0.964440000000     0.326790000000     0.287540000000     0.0387494  
H472     H      0.464570000000     0.397620000000     0.357870000000     0.0397495  
H473     H      0.462290000000     0.287490000000     0.103370000000     0.0402163  
H474     H      0.465610000000     0.357750000000     0.032550000000     0.042891   
H475     H      0.466180000000     0.397600000000     0.072430000000     0.04096    
H476     H      0.462930000000     0.326800000000     0.142710000000     0.0402961  
H477     H      0.964740000000     0.032500000000     0.072440000000     0.0416327  
H478     H      0.964730000000     0.103330000000     0.142770000000     0.0393925  
H479     H      0.465080000000     0.142670000000     0.103440000000     0.0401429  
H480     H      0.465140000000     0.072370000000     0.032580000000     0.0434528  
H481     H      0.916750000000     0.012740000000     0.759650000000     0.220785   
H482     H      0.513280000000     0.013600000000     0.668590000000     0.206013   
H483     H      0.512910000000     0.417370000000     0.759650000000     0.211303   
H484     H      0.916390000000     0.416510000000     0.668580000000     0.205285   
H485     H      0.520810000000     0.066180000000     0.712150000000     0.127477   
H486     H      0.570840000000     0.022720000000     0.711750000000     0.185735   
H487     H      0.561070000000     0.410470000000     0.697630000000     0.149492   
H488     H      0.516290000000     0.358040000000     0.734990000000     0.201526   
H489     H      0.908880000000     0.363870000000     0.711960000000     0.126809   
H490     H      0.858820000000     0.407360000000     0.712040000000     0.187508   
H491     H      0.868590000000     0.019540000000     0.697300000000     0.150393   
H492     H      0.913540000000     0.072150000000     0.735270000000     0.201431   
H493     H      0.518860000000     0.361030000000     0.696160000000     0.204734   
H494     H      0.835060000000     0.438170000000     0.715490000000     0.204749   
H495     H      0.910680000000     0.069030000000     0.696470000000     0.205082   
H496     H      0.594590000000     0.991940000000     0.715490000000     0.194877   
H497     H      0.512860000000     0.259500000000     0.512880000000     0.211483   
H498     H      0.916440000000     0.168540000000     0.513770000000     0.205396   
H499     H      0.916780000000     0.259510000000     0.917400000000     0.211481   
H500     H      0.513190000000     0.168540000000     0.916520000000     0.20615    
H501     H      0.908860000000     0.211970000000     0.566300000000     0.126603   
H502     H      0.858790000000     0.212320000000     0.522840000000     0.186782   
H503     H      0.868510000000     0.196670000000     0.910860000000     0.149264   
H504     H      0.913500000000     0.234950000000     0.857960000000     0.201591   
H505     H      0.520760000000     0.211790000000     0.863940000000     0.126887   
H506     H      0.570860000000     0.212640000000     0.907420000000     0.187295   
H507     H      0.561160000000     0.196320000000     0.519310000000     0.149337   
H508     H      0.515960000000     0.235230000000     0.572420000000     0.201249   
H509     H      0.910650000000     0.196180000000     0.861260000000     0.204627   
H510     H      0.594600000000     0.215800000000     0.938280000000     0.202469   
H511     H      0.519140000000     0.196490000000     0.568960000000     0.204698   
H512     H      0.835060000000     0.215770000000     0.492010000000     0.203501   
H513     H      0.670320000000     0.013060000000     0.512930000000     0.211883   
H514     H      0.761400000000     0.416790000000     0.513870000000     0.205112   
H515     H      0.670320000000     0.417070000000     0.917400000000     0.211336   
H516     H      0.761400000000     0.013350000000     0.916450000000     0.206395   
H517     H      0.717970000000     0.409110000000     0.566310000000     0.126317   
H518     H      0.717210000000     0.359050000000     0.522900000000     0.186936   
H519     H      0.733680000000     0.368740000000     0.911060000000     0.14939    
H520     H      0.693930000000     0.414410000000     0.857640000000     0.201404   
H521     H      0.717780000000     0.021050000000     0.864060000000     0.135354   
H522     H      0.717390000000     0.071060000000     0.907440000000     0.187501   
H523     H      0.733340000000     0.061380000000     0.519380000000     0.149311   
H524     H      0.694220000000     0.015930000000     0.572570000000     0.202545   
H525     H      0.732560000000     0.410400000000     0.861450000000     0.204436   
H526     H      0.714150000000     0.094800000000     0.938290000000     0.202161   
H527     H      0.732910000000     0.019590000000     0.568930000000     0.205673   
H528     H      0.714020000000     0.335320000000     0.492040000000     0.203694   
H529     H      0.826610000000     0.287530000000     0.967930000000     0.0349205  
H530     H      0.897440000000     0.357770000000     0.964320000000     0.0376914  
H531     H      0.857560000000     0.397630000000     0.963740000000     0.0378047  
H532     H      0.787260000000     0.326850000000     0.967260000000     0.0330993  
H533     H      0.897410000000     0.072370000000     0.464840000000     0.0399146  
H534     H      0.826540000000     0.142670000000     0.964890000000     0.0327883  
H535     H      0.787200000000     0.103330000000     0.965220000000     0.0325614  
H536     H      0.857550000000     0.032500000000     0.465220000000     0.0414231  
H537     H      0.572080000000     0.397650000000     0.465460000000     0.039751   
H538     H      0.642420000000     0.326820000000     0.965630000000     0.0355924  
H539     H      0.603090000000     0.287480000000     0.964580000000     0.0353686  
H540     H      0.532220000000     0.357780000000     0.464630000000     0.0397408  
H541     H      0.603070000000     0.142610000000     0.463200000000     0.0343928  
H542     H      0.532250000000     0.072360000000     0.466820000000     0.0405752  
H543     H      0.572090000000     0.032480000000     0.466220000000     0.0419746  
H544     H      0.642380000000     0.103260000000     0.462520000000     0.0361564  
H545     H      0.826570000000     0.461600000000     0.787590000000     0.037192   
H546     H      0.897410000000     0.964050000000     0.857890000000     0.0376849  
H547     H      0.857540000000     0.964260000000     0.897750000000     0.0375284  
H548     H      0.787220000000     0.461950000000     0.826930000000     0.0392059  
H549     H      0.602970000000     0.470520000000     0.787680000000     0.0371353  
H550     H      0.532230000000     0.464780000000     0.857890000000     0.0395709  
H551     H      0.572110000000     0.464750000000     0.897750000000     0.0393233  
H552     H      0.642310000000     0.470460000000     0.827020000000     0.0397953  
H553     H      0.642410000000     0.961860000000     0.603450000000     0.0378604  
H554     H      0.572120000000     0.464000000000     0.532590000000     0.0396552  
H555     H      0.532240000000     0.464180000000     0.572450000000     0.0394375  
H556     H      0.603050000000     0.962150000000     0.642790000000     0.0342675  
H557     H      0.897410000000     0.967190000000     0.572440000000     0.0378028  
H558     H      0.826580000000     0.965990000000     0.642780000000     0.0338878  
H559     H      0.787230000000     0.966010000000     0.603450000000     0.0377084  
H560     H      0.857530000000     0.967200000000     0.532590000000     0.0380401  
H561     H      0.963230000000     0.072370000000     0.897700000000     0.0388357  
H562     H      0.466570000000     0.142610000000     0.826870000000     0.0402891  
H563     H      0.467210000000     0.103260000000     0.787560000000     0.0402229  
H564     H      0.963800000000     0.032480000000     0.857860000000     0.040507   
H565     H      0.465320000000     0.357750000000     0.897730000000     0.0392453  
H566     H      0.965360000000     0.287450000000     0.826860000000     0.0391703  
H567     H      0.964440000000     0.326790000000     0.787540000000     0.0387868  
H568     H      0.464570000000     0.397620000000     0.857870000000     0.0395115  
H569     H      0.462290000000     0.287490000000     0.603370000000     0.0399627  
H570     H      0.465610000000     0.357750000000     0.532550000000     0.0397271  
H571     H      0.466180000000     0.397600000000     0.572430000000     0.0396455  
H572     H      0.462930000000     0.326800000000     0.642710000000     0.0401675  
H573     H      0.964740000000     0.032500000000     0.572440000000     0.0403397  
H574     H      0.964730000000     0.103330000000     0.642770000000     0.0392708  
H575     H      0.465080000000     0.142670000000     0.603440000000     0.0399217  
H576     H      0.465140000000     0.072370000000     0.532580000000     0.0402894  
H577     H      0.916750000000     0.512740000000     0.259650000000     0.211153   
H578     H      0.513280000000     0.513600000000     0.168590000000     0.205179   
H579     H      0.512910000000     0.917370000000     0.259650000000     0.211338   
H580     H      0.916390000000     0.916510000000     0.168580000000     0.205499   
H581     H      0.520810000000     0.566180000000     0.212150000000     0.126645   
H582     H      0.570840000000     0.522720000000     0.211740000000     0.18723    
H583     H      0.561070000000     0.910470000000     0.197630000000     0.149719   
H584     H      0.516290000000     0.858040000000     0.234990000000     0.201611   
H585     H      0.908880000000     0.863870000000     0.211960000000     0.127029   
H586     H      0.858820000000     0.907350000000     0.212040000000     0.187362   
H587     H      0.868590000000     0.519540000000     0.197300000000     0.149269   
H588     H      0.913550000000     0.572150000000     0.235270000000     0.200895   
H589     H      0.518860000000     0.861030000000     0.196160000000     0.204991   
H590     H      0.835060000000     0.938170000000     0.215490000000     0.203665   
H591     H      0.910680000000     0.569030000000     0.196470000000     0.204587   
H592     H      0.594590000000     0.491940000000     0.215490000000     0.204746   
H593     H      0.512860000000     0.759500000000     0.012880000000     0.212832   
H594     H      0.916440000000     0.668540000000     0.013770000000     0.206856   
H595     H      0.916780000000     0.759510000000     0.417400000000     0.211398   
H596     H      0.513190000000     0.668540000000     0.416520000000     0.205944   
H597     H      0.908860000000     0.711970000000     0.066300000000     0.127835   
H598     H      0.858790000000     0.712330000000     0.022840000000     0.184809   
H599     H      0.868510000000     0.696670000000     0.410860000000     0.149043   
H600     H      0.913500000000     0.734950000000     0.357960000000     0.20148    
H601     H      0.520760000000     0.711790000000     0.363940000000     0.126617   
H602     H      0.570860000000     0.712640000000     0.407420000000     0.187278   
H603     H      0.561160000000     0.696320000000     0.019310000000     0.150972   
H604     H      0.515960000000     0.735230000000     0.072420000000     0.202153   
H605     H      0.910650000000     0.696180000000     0.361260000000     0.204391   
H606     H      0.594600000000     0.715800000000     0.438280000000     0.203952   
H607     H      0.519140000000     0.696490000000     0.068960000000     0.205582   
H608     H      0.835060000000     0.715770000000     0.992010000000     0.189841   
H609     H      0.670320000000     0.513060000000     0.012930000000     0.212334   
H610     H      0.761400000000     0.916790000000     0.013870000000     0.206616   
H611     H      0.670320000000     0.917070000000     0.417400000000     0.211355   
H612     H      0.761400000000     0.513350000000     0.416450000000     0.205085   
H613     H      0.717970000000     0.909110000000     0.066310000000     0.127913   
H614     H      0.717210000000     0.859050000000     0.022900000000     0.18512    
H615     H      0.733680000000     0.868740000000     0.411060000000     0.14936    
H616     H      0.693930000000     0.914410000000     0.357640000000     0.201194   
H617     H      0.717780000000     0.521050000000     0.364060000000     0.126337   
H618     H      0.717390000000     0.571060000000     0.407440000000     0.186885   
H619     H      0.733340000000     0.561380000000     0.019380000000     0.150452   
H620     H      0.694220000000     0.515930000000     0.072570000000     0.201382   
H621     H      0.732560000000     0.910400000000     0.361450000000     0.204219   
H622     H      0.714150000000     0.594800000000     0.438290000000     0.203362   
H623     H      0.732910000000     0.519590000000     0.068930000000     0.204943   
H624     H      0.714020000000     0.835320000000     0.992040000000     0.190115   
H625     H      0.826610000000     0.787530000000     0.467930000000     0.0360605  
H626     H      0.897440000000     0.857770000000     0.464320000000     0.0391882  
H627     H      0.857560000000     0.897630000000     0.463740000000     0.0390704  
H628     H      0.787260000000     0.826850000000     0.467260000000     0.0343046  
H629     H      0.897410000000     0.572370000000     0.964840000000     0.0372599  
H630     H      0.826540000000     0.642670000000     0.464890000000     0.0338398  
H631     H      0.787200000000     0.603330000000     0.465220000000     0.033757   
H632     H      0.857550000000     0.532500000000     0.965230000000     0.0374314  
H633     H      0.572080000000     0.897650000000     0.965460000000     0.0376332  
H634     H      0.642420000000     0.826820000000     0.465630000000     0.0367162  
H635     H      0.603090000000     0.787490000000     0.464580000000     0.0367232  
H636     H      0.532220000000     0.857780000000     0.964630000000     0.0378805  
H637     H      0.603070000000     0.642610000000     0.963200000000     0.0329854  
H638     H      0.532250000000     0.572360000000     0.966820000000     0.0378062  
H639     H      0.572090000000     0.532480000000     0.966220000000     0.0379221  
H640     H      0.642380000000     0.603260000000     0.962520000000     0.0346893  
H641     H      0.826570000000     0.961600000000     0.287590000000     0.0362305  
H642     H      0.897410000000     0.464050000000     0.357890000000     0.0391857  
H643     H      0.857540000000     0.464260000000     0.397750000000     0.0392697  
H644     H      0.787220000000     0.961950000000     0.326930000000     0.0385305  
H645     H      0.602970000000     0.970520000000     0.287680000000     0.0362398  
H646     H      0.532230000000     0.964790000000     0.357890000000     0.0385985  
H647     H      0.572110000000     0.964750000000     0.397750000000     0.0386354  
H648     H      0.642310000000     0.970460000000     0.327020000000     0.0390147  
H649     H      0.642410000000     0.461860000000     0.103450000000     0.039092   
H650     H      0.572120000000     0.964000000000     0.032590000000     0.0415828  
H651     H      0.532240000000     0.964180000000     0.072450000000     0.0394966  
H652     H      0.603050000000     0.462150000000     0.142790000000     0.0351702  
H653     H      0.897410000000     0.467190000000     0.072440000000     0.040415   
H654     H      0.826580000000     0.465990000000     0.142780000000     0.0350615  
H655     H      0.787230000000     0.466010000000     0.103450000000     0.0390232  
H656     H      0.857530000000     0.467200000000     0.032590000000     0.0424961  
H657     H      0.963230000000     0.572370000000     0.397700000000     0.0383903  
H658     H      0.466570000000     0.642610000000     0.326870000000     0.0401349  
H659     H      0.467210000000     0.603260000000     0.287570000000     0.040042   
H660     H      0.963800000000     0.532480000000     0.357860000000     0.0384951  
H661     H      0.465320000000     0.857750000000     0.397730000000     0.039576   
H662     H      0.965360000000     0.787450000000     0.326860000000     0.03913    
H663     H      0.964440000000     0.826790000000     0.287540000000     0.0387896  
H664     H      0.464570000000     0.897620000000     0.357870000000     0.0393619  
H665     H      0.462290000000     0.787490000000     0.103370000000     0.0402434  
H666     H      0.465610000000     0.857750000000     0.032550000000     0.0427492  
H667     H      0.466180000000     0.897600000000     0.072430000000     0.0405838  
H668     H      0.462930000000     0.826800000000     0.142710000000     0.0403397  
H669     H      0.964740000000     0.532500000000     0.072440000000     0.039375   
H670     H      0.964730000000     0.603330000000     0.142770000000     0.0392125  
H671     H      0.465080000000     0.642670000000     0.103440000000     0.0400739  
H672     H      0.465140000000     0.572370000000     0.032580000000     0.0425292  
H673     H      0.916750000000     0.512740000000     0.759650000000     0.211029   
H674     H      0.513280000000     0.513600000000     0.668590000000     0.205036   
H675     H      0.512910000000     0.917370000000     0.759650000000     0.211368   
H676     H      0.916390000000     0.916510000000     0.668580000000     0.205337   
H677     H      0.520810000000     0.566180000000     0.712150000000     0.126576   
H678     H      0.570840000000     0.522720000000     0.711750000000     0.187161   
H679     H      0.561070000000     0.910470000000     0.697630000000     0.149578   
H680     H      0.516290000000     0.858040000000     0.734990000000     0.201598   
H681     H      0.908880000000     0.863870000000     0.711960000000     0.126924   
H682     H      0.858820000000     0.907350000000     0.712040000000     0.187247   
H683     H      0.868590000000     0.519540000000     0.697300000000     0.149134   
H684     H      0.913550000000     0.572150000000     0.735270000000     0.200885   
H685     H      0.518860000000     0.861030000000     0.696160000000     0.204821   
H686     H      0.835060000000     0.938170000000     0.715490000000     0.203601   
H687     H      0.910680000000     0.569030000000     0.696470000000     0.204417   
H688     H      0.594590000000     0.491940000000     0.715490000000     0.204701   
H689     H      0.512860000000     0.759500000000     0.512880000000     0.211503   
H690     H      0.916440000000     0.668540000000     0.513770000000     0.205305   
H691     H      0.916780000000     0.759510000000     0.917400000000     0.211501   
H692     H      0.513190000000     0.668540000000     0.916520000000     0.206048   
H693     H      0.908860000000     0.711970000000     0.566300000000     0.126554   
H694     H      0.858790000000     0.712330000000     0.522840000000     0.18674    
H695     H      0.868510000000     0.696670000000     0.910860000000     0.149166   
H696     H      0.913500000000     0.734950000000     0.857960000000     0.201586   
H697     H      0.520760000000     0.711790000000     0.863940000000     0.126824   
H698     H      0.570860000000     0.712640000000     0.907420000000     0.187214   
H699     H      0.561160000000     0.696320000000     0.519310000000     0.14924    
H700     H      0.515960000000     0.735230000000     0.572420000000     0.201241   
H701     H      0.910650000000     0.696180000000     0.861260000000     0.204512   
H702     H      0.594600000000     0.715800000000     0.938280000000     0.202425   
H703     H      0.519140000000     0.696490000000     0.568960000000     0.204581   
H704     H      0.835060000000     0.715770000000     0.492010000000     0.203472   
H705     H      0.670320000000     0.513060000000     0.512930000000     0.211001   
H706     H      0.761400000000     0.916790000000     0.513870000000     0.205186   
H707     H      0.670320000000     0.917070000000     0.917400000000     0.211457   
H708     H      0.761400000000     0.513350000000     0.916450000000     0.20519    
H709     H      0.717970000000     0.909110000000     0.566310000000     0.126627   
H710     H      0.717210000000     0.859050000000     0.522900000000     0.187047   
H711     H      0.733680000000     0.868740000000     0.911060000000     0.149486   
H712     H      0.693930000000     0.914410000000     0.857640000000     0.201299   
H713     H      0.717780000000     0.521050000000     0.864060000000     0.126457   
H714     H      0.717390000000     0.571060000000     0.907440000000     0.186605   
H715     H      0.733340000000     0.561380000000     0.519380000000     0.148706   
H716     H      0.694220000000     0.515930000000     0.572570000000     0.200481   
H717     H      0.732560000000     0.910400000000     0.861450000000     0.204339   
H718     H      0.714150000000     0.594800000000     0.938290000000     0.201864   
H719     H      0.732910000000     0.519590000000     0.568930000000     0.203939   
H720     H      0.714020000000     0.835320000000     0.492040000000     0.203733   
H721     H      0.826610000000     0.787530000000     0.967930000000     0.0349491  
H722     H      0.897440000000     0.857770000000     0.964320000000     0.0375325  
H723     H      0.857560000000     0.897630000000     0.963740000000     0.0374472  
H724     H      0.787260000000     0.826850000000     0.967260000000     0.0331458  
H725     H      0.897410000000     0.572370000000     0.464840000000     0.038971   
H726     H      0.826540000000     0.642670000000     0.964890000000     0.0327079  
H727     H      0.787200000000     0.603330000000     0.965220000000     0.032399   
H728     H      0.857550000000     0.532500000000     0.465220000000     0.0391645  
H729     H      0.572080000000     0.897650000000     0.465460000000     0.0393758  
H730     H      0.642420000000     0.826820000000     0.965630000000     0.0356377  
H731     H      0.603090000000     0.787490000000     0.964580000000     0.0354046  
H732     H      0.532220000000     0.857780000000     0.464630000000     0.0395778  
H733     H      0.603070000000     0.642610000000     0.463200000000     0.0343031  
H734     H      0.532250000000     0.572360000000     0.466820000000     0.0396267  
H735     H      0.572090000000     0.532480000000     0.466220000000     0.039706   
H736     H      0.642380000000     0.603260000000     0.462520000000     0.0359755  
H737     H      0.826570000000     0.961600000000     0.787590000000     0.0362672  
H738     H      0.897410000000     0.464050000000     0.857890000000     0.0389497  
H739     H      0.857540000000     0.464260000000     0.897750000000     0.0387684  
H740     H      0.787220000000     0.961950000000     0.826930000000     0.0385974  
H741     H      0.602970000000     0.970520000000     0.787680000000     0.0362771  
H742     H      0.532230000000     0.964790000000     0.857890000000     0.0383643  
H743     H      0.572110000000     0.964750000000     0.897750000000     0.0381399  
H744     H      0.642310000000     0.970460000000     0.827020000000     0.0390838  
H745     H      0.642410000000     0.461860000000     0.603450000000     0.0388451  
H746     H      0.572120000000     0.964000000000     0.532590000000     0.0384175  
H747     H      0.532240000000     0.964180000000     0.572450000000     0.0381874  
H748     H      0.603050000000     0.462150000000     0.642790000000     0.0350521  
H749     H      0.897410000000     0.467190000000     0.572440000000     0.0391022  
H750     H      0.826580000000     0.465990000000     0.642780000000     0.0349406  
H751     H      0.787230000000     0.466010000000     0.603450000000     0.0387805  
H752     H      0.857530000000     0.467200000000     0.532590000000     0.0393364  
H753     H      0.963230000000     0.572370000000     0.897700000000     0.0378954  
H754     H      0.466570000000     0.642610000000     0.826870000000     0.0402028  
H755     H      0.467210000000     0.603260000000     0.787560000000     0.040077   
H756     H      0.963800000000     0.532480000000     0.857860000000     0.0382695  
H757     H      0.465320000000     0.857750000000     0.897730000000     0.0390797  
H758     H      0.965360000000     0.787450000000     0.826860000000     0.0391993  
H759     H      0.964440000000     0.826790000000     0.787530000000     0.0388237  
H760     H      0.464570000000     0.897620000000     0.857870000000     0.0391246  
H761     H      0.462290000000     0.787490000000     0.603370000000     0.0399901  
H762     H      0.465610000000     0.857750000000     0.532550000000     0.0395873  
H763     H      0.466180000000     0.897600000000     0.572430000000     0.03927    
H764     H      0.462930000000     0.826800000000     0.642710000000     0.0402109  
H765     H      0.964740000000     0.532500000000     0.572440000000     0.0380715  
H766     H      0.964730000000     0.603330000000     0.642770000000     0.0390904  
H767     H      0.465080000000     0.642670000000     0.603440000000     0.0398527  
H768     H      0.465140000000     0.572370000000     0.532580000000     0.0393551  
N1       N      0.365320000000     0.319390000000     0.466170000000    -0.171533   
N2       N      0.319150000000     0.365530000000     0.465430000000    -0.172148   
N3       N      0.365270000000     0.110780000000     0.464840000000    -0.172294   
N4       N      0.319110000000     0.064620000000     0.965250000000    -0.172241   
N5       N      0.110510000000     0.365530000000     0.465640000000    -0.171324   
N6       N      0.064360000000     0.319370000000     0.964520000000    -0.171232   
N7       N      0.064360000000     0.110750000000     0.965080000000    -0.171858   
N8       N      0.110500000000     0.064570000000     0.964320000000    -0.171243   
N9       N      0.365290000000     0.962940000000     0.319470000000    -0.171984   
N10      N      0.319120000000     0.463290000000     0.365630000000    -0.17161    
N11      N      0.064310000000     0.467500000000     0.319510000000    -0.170975   
N12      N      0.110480000000     0.467460000000     0.365680000000    -0.171307   
N13      N      0.110530000000     0.963030000000     0.064730000000    -0.171054   
N14      N      0.064350000000     0.463330000000     0.110880000000    -0.171786   
N15      N      0.365300000000     0.966450000000     0.110870000000    -0.172605   
N16      N      0.319120000000     0.966470000000     0.064720000000    -0.171351   
N17      N      0.464840000000     0.110750000000     0.365580000000    -0.171701   
N18      N      0.465570000000     0.064570000000     0.319450000000    -0.171257   
N19      N      0.465420000000     0.319340000000     0.365590000000    -0.171685   
N20      N      0.964410000000     0.365500000000     0.319440000000    -0.171848   
N21      N      0.963900000000     0.319360000000     0.064660000000    -0.171257   
N22      N      0.964620000000     0.365500000000     0.110840000000    -0.171858   
N23      N      0.464710000000     0.064620000000     0.110870000000    -0.171348   
N24      N      0.965130000000     0.110780000000     0.064720000000    -0.171325   
N25      N      0.365320000000     0.319390000000     0.966160000000    -0.171832   
N26      N      0.319150000000     0.365530000000     0.965430000000    -0.172449   
N27      N      0.365270000000     0.110780000000     0.964840000000    -0.17259    
N28      N      0.319110000000     0.064620000000     0.465250000000    -0.171904   
N29      N      0.110510000000     0.365530000000     0.965640000000    -0.171619   
N30      N      0.064360000000     0.319370000000     0.464520000000    -0.170913   
N31      N      0.064360000000     0.110750000000     0.465080000000    -0.171526   
N32      N      0.110500000000     0.064570000000     0.464320000000    -0.170928   
N33      N      0.365290000000     0.962940000000     0.819470000000    -0.171963   
N34      N      0.319120000000     0.463290000000     0.865630000000    -0.171533   
N35      N      0.064310000000     0.467500000000     0.819510000000    -0.170959   
N36      N      0.110480000000     0.467460000000     0.865680000000    -0.17123    
N37      N      0.110530000000     0.963030000000     0.564730000000    -0.171767   
N38      N      0.064350000000     0.463330000000     0.610880000000    -0.171882   
N39      N      0.365300000000     0.966450000000     0.610870000000    -0.172711   
N40      N      0.319120000000     0.966470000000     0.564720000000    -0.172065   
N41      N      0.464840000000     0.110750000000     0.865580000000    -0.171622   
N42      N      0.465570000000     0.064570000000     0.819450000000    -0.171221   
N43      N      0.465420000000     0.319340000000     0.865590000000    -0.171607   
N44      N      0.964410000000     0.365500000000     0.819440000000    -0.171826   
N45      N      0.963900000000     0.319360000000     0.564660000000    -0.171973   
N46      N      0.964620000000     0.365500000000     0.610840000000    -0.171965   
N47      N      0.464710000000     0.064620000000     0.610870000000    -0.17145    
N48      N      0.965130000000     0.110780000000     0.564710000000    -0.172081   
N49      N      0.365320000000     0.819390000000     0.466170000000    -0.171496   
N50      N      0.319150000000     0.865530000000     0.465430000000    -0.172094   
N51      N      0.365270000000     0.610780000000     0.464840000000    -0.17237    
N52      N      0.319110000000     0.564620000000     0.965250000000    -0.172737   
N53      N      0.110510000000     0.865530000000     0.465640000000    -0.17127    
N54      N      0.064360000000     0.819370000000     0.964520000000    -0.171201   
N55      N      0.064360000000     0.610750000000     0.965080000000    -0.171952   
N56      N      0.110500000000     0.564570000000     0.964320000000    -0.171758   
N57      N      0.365290000000     0.462940000000     0.319470000000    -0.171697   
N58      N      0.319120000000     0.963290000000     0.365630000000    -0.171777   
N59      N      0.064310000000     0.967500000000     0.319510000000    -0.171224   
N60      N      0.110480000000     0.967460000000     0.365680000000    -0.171489   
N61      N      0.110530000000     0.463030000000     0.064730000000    -0.170815   
N62      N      0.064350000000     0.963330000000     0.110880000000    -0.172002   
N63      N      0.365300000000     0.466450000000     0.110870000000    -0.172331   
N64      N      0.319120000000     0.466470000000     0.064720000000    -0.171101   
N65      N      0.464840000000     0.610750000000     0.365580000000    -0.171774   
N66      N      0.465570000000     0.564570000000     0.319450000000    -0.171713   
N67      N      0.465420000000     0.819340000000     0.365590000000    -0.171668   
N68      N      0.964410000000     0.865500000000     0.319440000000    -0.171863   
N69      N      0.963900000000     0.819360000000     0.064660000000    -0.171211   
N70      N      0.964620000000     0.865500000000     0.110840000000    -0.171814   
N71      N      0.464710000000     0.564620000000     0.110870000000    -0.17186    
N72      N      0.965130000000     0.610780000000     0.064720000000    -0.171386   
N73      N      0.365320000000     0.819390000000     0.966160000000    -0.171795   
N74      N      0.319150000000     0.865530000000     0.965430000000    -0.172395   
N75      N      0.365270000000     0.610780000000     0.964840000000    -0.172666   
N76      N      0.319110000000     0.564620000000     0.465250000000    -0.1724     
N77      N      0.110510000000     0.865530000000     0.965640000000    -0.171564   
N78      N      0.064360000000     0.819370000000     0.464520000000    -0.170882   
N79      N      0.064360000000     0.610750000000     0.465080000000    -0.171619   
N80      N      0.110500000000     0.564570000000     0.464320000000    -0.171444   
N81      N      0.365290000000     0.462940000000     0.819470000000    -0.171677   
N82      N      0.319120000000     0.963290000000     0.865630000000    -0.171699   
N83      N      0.064310000000     0.967500000000     0.819510000000    -0.171208   
N84      N      0.110480000000     0.967460000000     0.865680000000    -0.171411   
N85      N      0.110530000000     0.463030000000     0.564730000000    -0.171529   
N86      N      0.064350000000     0.963330000000     0.610880000000    -0.172098   
N87      N      0.365300000000     0.466450000000     0.610870000000    -0.172436   
N88      N      0.319120000000     0.466470000000     0.564720000000    -0.171816   
N89      N      0.464840000000     0.610750000000     0.865580000000    -0.171696   
N90      N      0.465570000000     0.564570000000     0.819450000000    -0.171676   
N91      N      0.465420000000     0.819340000000     0.865590000000    -0.171556   
N92      N      0.964410000000     0.865500000000     0.819440000000    -0.171847   
N93      N      0.963900000000     0.819360000000     0.564660000000    -0.171928   
N94      N      0.964620000000     0.865500000000     0.610840000000    -0.17192    
N95      N      0.464710000000     0.564620000000     0.610870000000    -0.171963   
N96      N      0.965130000000     0.610780000000     0.564710000000    -0.172143   
N97      N      0.865320000000     0.319390000000     0.466170000000    -0.171475   
N98      N      0.819150000000     0.365530000000     0.465430000000    -0.172133   
N99      N      0.865270000000     0.110780000000     0.464840000000    -0.172237   
N100     N      0.819110000000     0.064620000000     0.965250000000    -0.172226   
N101     N      0.610510000000     0.365530000000     0.465640000000    -0.171398   
N102     N      0.564360000000     0.319370000000     0.964520000000    -0.171766   
N103     N      0.564360000000     0.110750000000     0.965080000000    -0.172382   
N104     N      0.610500000000     0.064570000000     0.964320000000    -0.171348   
N105     N      0.865290000000     0.962940000000     0.319470000000    -0.171926   
N106     N      0.819120000000     0.463290000000     0.365630000000    -0.171595   
N107     N      0.564310000000     0.467500000000     0.319510000000    -0.171536   
N108     N      0.610480000000     0.467460000000     0.365680000000    -0.171384   
N109     N      0.610530000000     0.963030000000     0.064730000000    -0.171167   
N110     N      0.564350000000     0.463330000000     0.110880000000    -0.172315   
N111     N      0.865300000000     0.966450000000     0.110870000000    -0.172548   
N112     N      0.819120000000     0.966470000000     0.064720000000    -0.171336   
N113     N      0.964840000000     0.110750000000     0.365580000000    -0.171881   
N114     N      0.965570000000     0.064570000000     0.319450000000    -0.171438   
N115     N      0.965420000000     0.319340000000     0.365590000000    -0.171862   
N116     N      0.464410000000     0.365500000000     0.319440000000    -0.171597   
N117     N      0.463900000000     0.319360000000     0.064660000000    -0.171007   
N118     N      0.464620000000     0.365500000000     0.110840000000    -0.171603   
N119     N      0.964710000000     0.064620000000     0.110870000000    -0.171526   
N120     N      0.465130000000     0.110780000000     0.064720000000    -0.171066   
N121     N      0.865320000000     0.319390000000     0.966160000000    -0.171774   
N122     N      0.819150000000     0.365530000000     0.965430000000    -0.172434   
N123     N      0.865270000000     0.110780000000     0.964840000000    -0.172533   
N124     N      0.819110000000     0.064620000000     0.465250000000    -0.171889   
N125     N      0.610510000000     0.365530000000     0.965640000000    -0.171693   
N126     N      0.564360000000     0.319370000000     0.464520000000    -0.171448   
N127     N      0.564360000000     0.110750000000     0.465080000000    -0.17205    
N128     N      0.610500000000     0.064570000000     0.464320000000    -0.171034   
N129     N      0.865290000000     0.962940000000     0.819470000000    -0.171905   
N130     N      0.819120000000     0.463290000000     0.865630000000    -0.171519   
N131     N      0.564310000000     0.467500000000     0.819510000000    -0.171515   
N132     N      0.610480000000     0.467460000000     0.865680000000    -0.171307   
N133     N      0.610530000000     0.963030000000     0.564730000000    -0.171882   
N134     N      0.564350000000     0.463330000000     0.610880000000    -0.172417   
N135     N      0.865300000000     0.966450000000     0.610870000000    -0.172653   
N136     N      0.819120000000     0.966470000000     0.564720000000    -0.172049   
N137     N      0.964840000000     0.110750000000     0.865580000000    -0.171801   
N138     N      0.965570000000     0.064570000000     0.819450000000    -0.171401   
N139     N      0.965420000000     0.319340000000     0.865590000000    -0.171783   
N140     N      0.464410000000     0.365500000000     0.819440000000    -0.171576   
N141     N      0.463900000000     0.319360000000     0.564660000000    -0.171725   
N142     N      0.464620000000     0.365500000000     0.610840000000    -0.17171    
N143     N      0.964710000000     0.064620000000     0.610870000000    -0.171628   
N144     N      0.465130000000     0.110780000000     0.564710000000    -0.171823   
N145     N      0.865320000000     0.819390000000     0.466170000000    -0.171439   
N146     N      0.819150000000     0.865530000000     0.465430000000    -0.17208    
N147     N      0.865270000000     0.610780000000     0.464840000000    -0.172313   
N148     N      0.819110000000     0.564620000000     0.965250000000    -0.172722   
N149     N      0.610510000000     0.865530000000     0.465640000000    -0.171359   
N150     N      0.564360000000     0.819370000000     0.964520000000    -0.171729   
N151     N      0.564360000000     0.610750000000     0.965080000000    -0.172478   
N152     N      0.610500000000     0.564570000000     0.964320000000    -0.171864   
N153     N      0.865290000000     0.462940000000     0.319470000000    -0.171639   
N154     N      0.819120000000     0.963290000000     0.365630000000    -0.171762   
N155     N      0.564310000000     0.967500000000     0.319510000000    -0.171784   
N156     N      0.610480000000     0.967460000000     0.365680000000    -0.171566   
N157     N      0.610530000000     0.463030000000     0.064730000000    -0.170928   
N158     N      0.564350000000     0.963330000000     0.110880000000    -0.17253    
N159     N      0.865300000000     0.466450000000     0.110870000000    -0.172275   
N160     N      0.819120000000     0.466470000000     0.064720000000    -0.171086   
N161     N      0.964840000000     0.610750000000     0.365580000000    -0.171954   
N162     N      0.965570000000     0.564570000000     0.319450000000    -0.171893   
N163     N      0.965420000000     0.819340000000     0.365590000000    -0.171812   
N164     N      0.464410000000     0.865500000000     0.319440000000    -0.171612   
N165     N      0.463900000000     0.819360000000     0.064660000000    -0.170962   
N166     N      0.464620000000     0.865500000000     0.110840000000    -0.171559   
N167     N      0.964710000000     0.564620000000     0.110870000000    -0.172037   
N168     N      0.465130000000     0.610780000000     0.064720000000    -0.171127   
N169     N      0.865320000000     0.819390000000     0.966160000000    -0.171738   
N170     N      0.819150000000     0.865530000000     0.965430000000    -0.17238    
N171     N      0.865270000000     0.610780000000     0.964840000000    -0.172609   
N172     N      0.819110000000     0.564620000000     0.465250000000    -0.172386   
N173     N      0.610510000000     0.865530000000     0.965640000000    -0.171653   
N174     N      0.564360000000     0.819370000000     0.464520000000    -0.171411   
N175     N      0.564360000000     0.610750000000     0.465080000000    -0.172145   
N176     N      0.610500000000     0.564570000000     0.464320000000    -0.17155    
N177     N      0.865290000000     0.462940000000     0.819470000000    -0.171618   
N178     N      0.819120000000     0.963290000000     0.865630000000    -0.171684   
N179     N      0.564310000000     0.967500000000     0.819510000000    -0.171763   
N180     N      0.610480000000     0.967460000000     0.865680000000    -0.171488   
N181     N      0.610530000000     0.463030000000     0.564730000000    -0.171644   
N182     N      0.564350000000     0.963330000000     0.610880000000    -0.172632   
N183     N      0.865300000000     0.466450000000     0.610870000000    -0.17238    
N184     N      0.819120000000     0.466470000000     0.564720000000    -0.171801   
N185     N      0.964840000000     0.610750000000     0.865580000000    -0.171875   
N186     N      0.965570000000     0.564570000000     0.819450000000    -0.171856   
N187     N      0.965420000000     0.819340000000     0.865590000000    -0.171732   
N188     N      0.464410000000     0.865500000000     0.819440000000    -0.171598   
N189     N      0.463900000000     0.819360000000     0.564660000000    -0.17168    
N190     N      0.464620000000     0.865500000000     0.610840000000    -0.171666   
N191     N      0.964710000000     0.564620000000     0.610870000000    -0.17214    
N192     N      0.465130000000     0.610780000000     0.564710000000    -0.171885   
O1       O      0.378340000000     0.965200000000     0.162620000000    -0.366733   
O2       O      0.416820000000     0.466110000000     0.125790000000    -0.350224   
O3       O      0.466850000000     0.051530000000     0.267710000000    -0.358607   
O4       O      0.964420000000     0.013070000000     0.304490000000    -0.345229   
O5       O      0.465230000000     0.051600000000     0.162630000000    -0.361313   
O6       O      0.964350000000     0.013110000000     0.125810000000    -0.345414   
O7       O      0.378320000000     0.962350000000     0.267710000000    -0.355866   
O8       O      0.416770000000     0.464650000000     0.304510000000    -0.349759   
O9       O      0.364850000000     0.008030000000     0.216980000000    -0.333108   
O10      O      0.355870000000     0.429610000000     0.214050000000    -0.513536   
O11      O      0.421130000000     0.063790000000     0.215750000000    -0.513983   
O12      O      0.999560000000     0.074900000000     0.214590000000    -0.335653   
O13      O      0.429510000000     0.000120000000     0.183800000000    -0.46217    
O14      O      0.429640000000     0.999970000000     0.246280000000    -0.624882   
O15      O      0.963090000000     0.378530000000     0.267690000000    -0.360426   
O16      O      0.465170000000     0.417000000000     0.304490000000    -0.34997    
O17      O      0.051320000000     0.464620000000     0.162630000000    -0.364229   
O18      O      0.012840000000     0.964040000000     0.125790000000    -0.345635   
O19      O      0.051300000000     0.468040000000     0.267740000000    -0.353686   
O20      O      0.012840000000     0.965390000000     0.304530000000    -0.344951   
O21      O      0.964150000000     0.378490000000     0.162610000000    -0.362889   
O22      O      0.465370000000     0.417000000000     0.125800000000    -0.349585   
O23      O      0.008550000000     0.366320000000     0.215500000000    -0.50915    
O24      O      0.430110000000     0.355180000000     0.214710000000    -0.325372   
O25      O      0.064830000000     0.422090000000     0.217230000000    -0.339432   
O26      O      0.073780000000     0.000480000000     0.213930000000    -0.497568   
O27      O      0.000010000000     0.430120000000     0.246280000000    -0.605423   
O28      O      0.000150000000     0.429980000000     0.183800000000    -0.462344   
O29      O      0.429090000000     0.429040000000     0.248720000000    -0.475006   
O30      O      0.000410000000     0.000810000000     0.181960000000    -0.611166   
O31      O      0.429270000000     0.429300000000     0.181950000000    -0.624689   
O32      O      0.000540000000     0.001020000000     0.248740000000    -0.459178   
O33      O      0.051350000000     0.162510000000     0.964490000000    -0.366358   
O34      O      0.012850000000     0.125700000000     0.465760000000    -0.344098   
O35      O      0.962730000000     0.267610000000     0.051640000000    -0.359749   
O36      O      0.465060000000     0.304390000000     0.013160000000    -0.341568   
O37      O      0.964500000000     0.162540000000     0.051700000000    -0.361944   
O38      O      0.465490000000     0.125730000000     0.013200000000    -0.341879   
O39      O      0.051340000000     0.267620000000     0.963250000000    -0.355788   
O40      O      0.012860000000     0.304410000000     0.465190000000    -0.343588   
O41      O      0.064760000000     0.216240000000     0.008190000000    -0.330778   
O42      O      0.073800000000     0.214410000000     0.429700000000    -0.513641   
O43      O      0.008530000000     0.215730000000     0.063890000000    -0.509399   
O44      O      0.430110000000     0.214450000000     0.075020000000    -0.325714   
O45      O      0.000150000000     0.183690000000     0.000220000000    -0.452174   
O46      O      0.000000000000     0.246150000000     0.000070000000    -0.596004   
O47      O      0.466630000000     0.267600000000     0.378600000000    -0.359361   
O48      O      0.964660000000     0.304380000000     0.417090000000    -0.351159   
O49      O      0.378300000000     0.162540000000     0.465480000000    -0.365433   
O50      O      0.416780000000     0.125710000000     0.964580000000    -0.35233    
O51      O      0.378340000000     0.267640000000     0.467360000000    -0.355101   
O52      O      0.416820000000     0.304410000000     0.965030000000    -0.351384   
O53      O      0.465420000000     0.162520000000     0.378580000000    -0.361661   
O54      O      0.964110000000     0.125730000000     0.417090000000    -0.351084   
O55      O      0.421100000000     0.215480000000     0.366400000000    -0.513963   
O56      O      0.999540000000     0.214570000000     0.355250000000    -0.335172   
O57      O      0.364880000000     0.216510000000     0.422110000000    -0.340051   
O58      O      0.355860000000     0.214270000000     0.000580000000    -0.491074   
O59      O      0.429660000000     0.246150000000     0.430200000000    -0.612172   
O60      O      0.429490000000     0.183690000000     0.430060000000    -0.469966   
O61      O      0.000580000000     0.248630000000     0.429130000000    -0.467187   
O62      O      0.429270000000     0.181890000000     0.000920000000    -0.61522    
O63      O      0.000360000000     0.181880000000     0.429370000000    -0.618051   
O64      O      0.429100000000     0.248650000000     0.001120000000    -0.464429   
O65      O      0.267350000000     0.051580000000     0.964720000000    -0.366704   
O66      O      0.304190000000     0.013110000000     0.465540000000    -0.344852   
O67      O      0.162300000000     0.962480000000     0.051710000000    -0.359906   
O68      O      0.125500000000     0.464780000000     0.013250000000    -0.341436   
O69      O      0.267360000000     0.965240000000     0.051710000000    -0.362081   
O70      O      0.304170000000     0.466230000000     0.013210000000    -0.342135   
O71      O      0.162240000000     0.051530000000     0.963010000000    -0.355766   
O72      O      0.125450000000     0.013070000000     0.465450000000    -0.343552   
O73      O      0.213450000000     0.064980000000     0.008190000000    -0.33093    
O74      O      0.215560000000     0.074000000000     0.429710000000    -0.513445   
O75      O      0.213770000000     0.008760000000     0.063940000000    -0.510014   
O76      O      0.215750000000     0.430370000000     0.075050000000    -0.326733   
O77      O      0.246190000000     0.000390000000     0.000230000000    -0.452508   
O78      O      0.183700000000     0.000230000000     0.000110000000    -0.596033   
O79      O      0.162260000000     0.467960000000     0.378680000000    -0.359385   
O80      O      0.125480000000     0.965280000000     0.417140000000    -0.350614   
O81      O      0.267380000000     0.378560000000     0.465910000000    -0.365502   
O82      O      0.304200000000     0.417040000000     0.964730000000    -0.352357   
O83      O      0.162260000000     0.378570000000     0.467010000000    -0.354947   
O84      O      0.125460000000     0.417030000000     0.964950000000    -0.351166   
O85      O      0.267350000000     0.464580000000     0.378640000000    -0.361133   
O86      O      0.304180000000     0.963960000000     0.417140000000    -0.351536   
O87      O      0.213500000000     0.421410000000     0.366360000000    -0.513774   
O88      O      0.215890000000     0.999760000000     0.355300000000    -0.335982   
O89      O      0.213720000000     0.365160000000     0.422120000000    -0.339669   
O90      O      0.215430000000     0.356120000000     0.000620000000    -0.490765   
O91      O      0.183700000000     0.429890000000     0.430230000000    -0.612017   
O92      O      0.246190000000     0.429750000000     0.430100000000    -0.469942   
O93      O      0.181240000000     0.000770000000     0.429200000000    -0.467324   
O94      O      0.248030000000     0.429560000000     0.000970000000    -0.615038   
O95      O      0.248020000000     0.000590000000     0.429350000000    -0.617768   
O96      O      0.181260000000     0.429320000000     0.001170000000    -0.464346   
O97      O      0.378340000000     0.965200000000     0.662620000000    -0.366812   
O98      O      0.416820000000     0.466110000000     0.625790000000    -0.350656   
O99      O      0.466850000000     0.051530000000     0.767710000000    -0.358563   
O100     O      0.964420000000     0.013070000000     0.804500000000    -0.345171   
O101     O      0.465230000000     0.051600000000     0.662630000000    -0.36138    
O102     O      0.964350000000     0.013110000000     0.625810000000    -0.345828   
O103     O      0.378320000000     0.962350000000     0.767710000000    -0.355825   
O104     O      0.416770000000     0.464650000000     0.804510000000    -0.349785   
O105     O      0.364850000000     0.008030000000     0.716980000000    -0.333077   
O106     O      0.355870000000     0.429610000000     0.714050000000    -0.513519   
O107     O      0.421130000000     0.063790000000     0.715750000000    -0.513936   
O108     O      0.999560000000     0.074900000000     0.714590000000    -0.33569    
O109     O      0.429510000000     0.000120000000     0.683800000000    -0.462131   
O110     O      0.429640000000     0.999970000000     0.746270000000    -0.624768   
O111     O      0.963090000000     0.378530000000     0.767690000000    -0.360377   
O112     O      0.465170000000     0.417000000000     0.804490000000    -0.349983   
O113     O      0.051320000000     0.464620000000     0.662630000000    -0.364221   
O114     O      0.012840000000     0.964040000000     0.625790000000    -0.346037   
O115     O      0.051300000000     0.468040000000     0.767740000000    -0.353719   
O116     O      0.012840000000     0.965390000000     0.804530000000    -0.344976   
O117     O      0.964150000000     0.378490000000     0.662610000000    -0.362971   
O118     O      0.465370000000     0.417000000000     0.625800000000    -0.350017   
O119     O      0.008550000000     0.366320000000     0.715500000000    -0.509102   
O120     O      0.430110000000     0.355180000000     0.714720000000    -0.325392   
O121     O      0.064830000000     0.422090000000     0.717230000000    -0.339425   
O122     O      0.073780000000     0.000480000000     0.713930000000    -0.497532   
O123     O      0.000010000000     0.430120000000     0.746280000000    -0.605438   
O124     O      0.000150000000     0.429980000000     0.683800000000    -0.462277   
O125     O      0.429090000000     0.429040000000     0.748720000000    -0.474964   
O126     O      0.000410000000     0.000810000000     0.681960000000    -0.611009   
O127     O      0.429270000000     0.429300000000     0.681950000000    -0.624596   
O128     O      0.000540000000     0.001020000000     0.748740000000    -0.459182   
O129     O      0.051350000000     0.162510000000     0.464490000000    -0.3647     
O130     O      0.012850000000     0.125700000000     0.965760000000    -0.345953   
O131     O      0.962730000000     0.267610000000     0.551640000000    -0.360673   
O132     O      0.465060000000     0.304390000000     0.513160000000    -0.349757   
O133     O      0.964500000000     0.162540000000     0.551700000000    -0.362833   
O134     O      0.465490000000     0.125730000000     0.513200000000    -0.350066   
O135     O      0.051340000000     0.267620000000     0.463250000000    -0.354312   
O136     O      0.012860000000     0.304410000000     0.965190000000    -0.345454   
O137     O      0.064760000000     0.216240000000     0.508190000000    -0.339752   
O138     O      0.073800000000     0.214410000000     0.929700000000    -0.512222   
O139     O      0.008530000000     0.215730000000     0.563890000000    -0.508966   
O140     O      0.430110000000     0.214450000000     0.575020000000    -0.325783   
O141     O      0.000150000000     0.183690000000     0.500220000000    -0.462334   
O142     O      0.000000000000     0.246150000000     0.500070000000    -0.605362   
O143     O      0.466630000000     0.267600000000     0.878600000000    -0.35894    
O144     O      0.964660000000     0.304380000000     0.917090000000    -0.349989   
O145     O      0.378300000000     0.162540000000     0.965480000000    -0.367106   
O146     O      0.416780000000     0.125710000000     0.464580000000    -0.35061    
O147     O      0.378340000000     0.267640000000     0.967360000000    -0.356771   
O148     O      0.416820000000     0.304410000000     0.465030000000    -0.349693   
O149     O      0.465420000000     0.162520000000     0.878580000000    -0.361244   
O150     O      0.964110000000     0.125730000000     0.917090000000    -0.349911   
O151     O      0.421100000000     0.215480000000     0.866400000000    -0.513794   
O152     O      0.999540000000     0.214570000000     0.855250000000    -0.33499    
O153     O      0.364880000000     0.216510000000     0.922110000000    -0.338987   
O154     O      0.355860000000     0.214270000000     0.500580000000    -0.513499   
O155     O      0.429660000000     0.246150000000     0.930200000000    -0.610135   
O156     O      0.429490000000     0.183690000000     0.930060000000    -0.467883   
O157     O      0.000580000000     0.248630000000     0.929130000000    -0.465154   
O158     O      0.429280000000     0.181890000000     0.500920000000    -0.624843   
O159     O      0.000360000000     0.181880000000     0.929370000000    -0.616076   
O160     O      0.429100000000     0.248650000000     0.501120000000    -0.475118   
O161     O      0.267350000000     0.051580000000     0.464720000000    -0.365046   
O162     O      0.304190000000     0.013110000000     0.965540000000    -0.346704   
O163     O      0.162300000000     0.962480000000     0.551710000000    -0.360817   
O164     O      0.125500000000     0.464780000000     0.513250000000    -0.349604   
O165     O      0.267360000000     0.965240000000     0.551710000000    -0.362964   
O166     O      0.304170000000     0.466230000000     0.513210000000    -0.350314   
O167     O      0.162240000000     0.051530000000     0.463010000000    -0.354289   
O168     O      0.125450000000     0.013070000000     0.965450000000    -0.345429   
O169     O      0.213450000000     0.064980000000     0.508190000000    -0.339856   
O170     O      0.215560000000     0.074000000000     0.929720000000    -0.511899   
O171     O      0.213770000000     0.008760000000     0.563940000000    -0.509578   
O172     O      0.215750000000     0.430370000000     0.575050000000    -0.326794   
O173     O      0.246190000000     0.000390000000     0.500230000000    -0.462678   
O174     O      0.183700000000     0.000230000000     0.500110000000    -0.605385   
O175     O      0.162260000000     0.467960000000     0.878680000000    -0.358964   
O176     O      0.125480000000     0.965280000000     0.917140000000    -0.349446   
O177     O      0.267380000000     0.378560000000     0.965910000000    -0.36718    
O178     O      0.304200000000     0.417040000000     0.464730000000    -0.350629   
O179     O      0.162260000000     0.378570000000     0.967010000000    -0.356613   
O180     O      0.125460000000     0.417030000000     0.464950000000    -0.349471   
O181     O      0.267350000000     0.464580000000     0.878640000000    -0.360725   
O182     O      0.304180000000     0.963960000000     0.917140000000    -0.350369   
O183     O      0.213500000000     0.421410000000     0.866360000000    -0.513608   
O184     O      0.215890000000     0.999760000000     0.855290000000    -0.335667   
O185     O      0.213720000000     0.365160000000     0.922120000000    -0.338605   
O186     O      0.215430000000     0.356120000000     0.500620000000    -0.513182   
O187     O      0.183700000000     0.429890000000     0.930230000000    -0.609971   
O188     O      0.246190000000     0.429750000000     0.930100000000    -0.467856   
O189     O      0.181240000000     0.000770000000     0.929200000000    -0.465301   
O190     O      0.248030000000     0.429560000000     0.500970000000    -0.624608   
O191     O      0.248020000000     0.000590000000     0.929350000000    -0.615797   
O192     O      0.181260000000     0.429320000000     0.501170000000    -0.474996   
O193     O      0.378340000000     0.465200000000     0.162620000000    -0.365146   
O194     O      0.416820000000     0.966120000000     0.125790000000    -0.351655   
O195     O      0.466850000000     0.551530000000     0.267710000000    -0.359355   
O196     O      0.964420000000     0.513070000000     0.304490000000    -0.351143   
O197     O      0.465230000000     0.551600000000     0.162630000000    -0.361582   
O198     O      0.964350000000     0.513110000000     0.125810000000    -0.351193   
O199     O      0.378320000000     0.462350000000     0.267710000000    -0.354901   
O200     O      0.416770000000     0.964650000000     0.304510000000    -0.35106    
O201     O      0.364850000000     0.508030000000     0.216980000000    -0.339564   
O202     O      0.355870000000     0.929610000000     0.214050000000    -0.512953   
O203     O      0.421130000000     0.563790000000     0.215750000000    -0.513734   
O204     O      0.999560000000     0.574900000000     0.214590000000    -0.335356   
O205     O      0.429510000000     0.500120000000     0.183800000000    -0.469973   
O206     O      0.429640000000     0.499970000000     0.246280000000    -0.612247   
O207     O      0.963090000000     0.878530000000     0.267690000000    -0.360229   
O208     O      0.465170000000     0.917000000000     0.304490000000    -0.34938    
O209     O      0.051320000000     0.964620000000     0.162630000000    -0.365438   
O210     O      0.012840000000     0.464040000000     0.125790000000    -0.344368   
O211     O      0.051300000000     0.968040000000     0.267740000000    -0.355004   
O212     O      0.012840000000     0.465390000000     0.304530000000    -0.343348   
O213     O      0.964150000000     0.878490000000     0.162610000000    -0.36261    
O214     O      0.465370000000     0.917000000000     0.125800000000    -0.348779   
O215     O      0.008550000000     0.866320000000     0.215500000000    -0.509051   
O216     O      0.430110000000     0.855180000000     0.214710000000    -0.325276   
O217     O      0.064830000000     0.922090000000     0.217230000000    -0.33869    
O218     O      0.073780000000     0.500480000000     0.213930000000    -0.513625   
O219     O      0.000010000000     0.930120000000     0.246280000000    -0.604203   
O220     O      0.000150000000     0.929980000000     0.183800000000    -0.460874   
O221     O      0.429090000000     0.929040000000     0.248720000000    -0.473526   
O222     O      0.000410000000     0.500810000000     0.181960000000    -0.617828   
O223     O      0.429270000000     0.929300000000     0.181950000000    -0.623522   
O224     O      0.000540000000     0.501020000000     0.248740000000    -0.46685    
O225     O      0.051350000000     0.662510000000     0.964490000000    -0.366413   
O226     O      0.012850000000     0.625710000000     0.465760000000    -0.344438   
O227     O      0.962730000000     0.767610000000     0.051640000000    -0.359719   
O228     O      0.465060000000     0.804390000000     0.013160000000    -0.341582   
O229     O      0.964500000000     0.662540000000     0.051700000000    -0.361981   
O230     O      0.465490000000     0.625730000000     0.013200000000    -0.342123   
O231     O      0.051340000000     0.767630000000     0.963250000000    -0.355954   
O232     O      0.012860000000     0.804410000000     0.465190000000    -0.343648   
O233     O      0.064760000000     0.716240000000     0.008190000000    -0.330759   
O234     O      0.073800000000     0.714410000000     0.429700000000    -0.513623   
O235     O      0.008530000000     0.715730000000     0.063890000000    -0.509364   
O236     O      0.430110000000     0.714450000000     0.075020000000    -0.325736   
O237     O      0.000150000000     0.683690000000     0.000220000000    -0.452149   
O238     O      0.000000000000     0.746150000000     0.000070000000    -0.595984   
O239     O      0.466630000000     0.767600000000     0.378600000000    -0.359332   
O240     O      0.964660000000     0.804380000000     0.417090000000    -0.35112    
O241     O      0.378300000000     0.662540000000     0.465480000000    -0.365474   
O242     O      0.416780000000     0.625710000000     0.964580000000    -0.352603   
O243     O      0.378340000000     0.767640000000     0.467360000000    -0.355059   
O244     O      0.416820000000     0.804420000000     0.965030000000    -0.351315   
O245     O      0.465420000000     0.662520000000     0.378580000000    -0.361704   
O246     O      0.964110000000     0.625730000000     0.417090000000    -0.351356   
O247     O      0.421100000000     0.715480000000     0.366400000000    -0.513931   
O248     O      0.999540000000     0.714570000000     0.355250000000    -0.335195   
O249     O      0.364880000000     0.716510000000     0.422110000000    -0.340038   
O250     O      0.355860000000     0.714270000000     0.000580000000    -0.491044   
O251     O      0.429660000000     0.746150000000     0.430200000000    -0.612163   
O252     O      0.429490000000     0.683690000000     0.430060000000    -0.469972   
O253     O      0.000580000000     0.748630000000     0.429130000000    -0.467158   
O254     O      0.429280000000     0.681890000000     0.000920000000    -0.615078   
O255     O      0.000360000000     0.681880000000     0.429370000000    -0.617994   
O256     O      0.429100000000     0.748650000000     0.001120000000    -0.464406   
O257     O      0.267350000000     0.551580000000     0.964720000000    -0.367323   
O258     O      0.304190000000     0.513110000000     0.465540000000    -0.350742   
O259     O      0.162300000000     0.462480000000     0.051710000000    -0.358779   
O260     O      0.125500000000     0.964780000000     0.013250000000    -0.342785   
O261     O      0.267360000000     0.465240000000     0.051710000000    -0.360877   
O262     O      0.304170000000     0.966230000000     0.013210000000    -0.343487   
O263     O      0.162240000000     0.551530000000     0.963010000000    -0.356452   
O264     O      0.125450000000     0.513070000000     0.465450000000    -0.349428   
O265     O      0.213450000000     0.564980000000     0.008190000000    -0.331071   
O266     O      0.215560000000     0.574000000000     0.429710000000    -0.513245   
O267     O      0.213770000000     0.508760000000     0.063940000000    -0.51458    
O268     O      0.215750000000     0.930370000000     0.075050000000    -0.32679    
O269     O      0.246190000000     0.500390000000     0.000230000000    -0.459788   
O270     O      0.183700000000     0.500230000000     0.000110000000    -0.602701   
O271     O      0.162260000000     0.967960000000     0.378680000000    -0.360051   
O272     O      0.125480000000     0.465280000000     0.417140000000    -0.349411   
O273     O      0.267380000000     0.878560000000     0.465910000000    -0.365206   
O274     O      0.304200000000     0.917040000000     0.964730000000    -0.35152    
O275     O      0.162260000000     0.878570000000     0.467010000000    -0.354645   
O276     O      0.125460000000     0.917030000000     0.964950000000    -0.350323   
O277     O      0.267350000000     0.964580000000     0.378640000000    -0.361756   
O278     O      0.304180000000     0.463950000000     0.417140000000    -0.350308   
O279     O      0.213500000000     0.921410000000     0.366360000000    -0.51276    
O280     O      0.215890000000     0.499760000000     0.355300000000    -0.326552   
O281     O      0.213720000000     0.865160000000     0.422120000000    -0.339527   
O282     O      0.215430000000     0.856120000000     0.000620000000    -0.490683   
O283     O      0.183700000000     0.929890000000     0.430230000000    -0.610944   
O284     O      0.246190000000     0.929750000000     0.430100000000    -0.468821   
O285     O      0.181240000000     0.500780000000     0.429200000000    -0.474933   
O286     O      0.248030000000     0.929560000000     0.000970000000    -0.613495   
O287     O      0.248020000000     0.500590000000     0.429350000000    -0.624549   
O288     O      0.181260000000     0.929320000000     0.001170000000    -0.462917   
O289     O      0.378340000000     0.465200000000     0.662620000000    -0.365219   
O290     O      0.416820000000     0.966120000000     0.625790000000    -0.352089   
O291     O      0.466850000000     0.551530000000     0.767710000000    -0.359311   
O292     O      0.964420000000     0.513070000000     0.804500000000    -0.351085   
O293     O      0.465230000000     0.551600000000     0.662630000000    -0.36165    
O294     O      0.964350000000     0.513110000000     0.625810000000    -0.35162    
O295     O      0.378320000000     0.462350000000     0.767710000000    -0.354865   
O296     O      0.416770000000     0.964650000000     0.804510000000    -0.351084   
O297     O      0.364850000000     0.508030000000     0.716980000000    -0.339539   
O298     O      0.355870000000     0.929610000000     0.714050000000    -0.512953   
O299     O      0.421130000000     0.563790000000     0.715750000000    -0.513686   
O300     O      0.999560000000     0.574900000000     0.714590000000    -0.335392   
O301     O      0.429510000000     0.500120000000     0.683800000000    -0.469943   
O302     O      0.429640000000     0.499970000000     0.746270000000    -0.612137   
O303     O      0.963090000000     0.878530000000     0.767690000000    -0.360182   
O304     O      0.465170000000     0.917000000000     0.804490000000    -0.349393   
O305     O      0.051320000000     0.964620000000     0.662630000000    -0.365432   
O306     O      0.012840000000     0.464040000000     0.625790000000    -0.344769   
O307     O      0.051300000000     0.968040000000     0.767740000000    -0.355035   
O308     O      0.012840000000     0.465390000000     0.804530000000    -0.343376   
O309     O      0.964150000000     0.878490000000     0.662610000000    -0.362691   
O310     O      0.465370000000     0.917000000000     0.625800000000    -0.34921    
O311     O      0.008550000000     0.866320000000     0.715500000000    -0.509003   
O312     O      0.430110000000     0.855180000000     0.714720000000    -0.325296   
O313     O      0.064830000000     0.922090000000     0.717230000000    -0.338682   
O314     O      0.073780000000     0.500480000000     0.713930000000    -0.513601   
O315     O      0.000010000000     0.930120000000     0.746280000000    -0.604217   
O316     O      0.000150000000     0.929980000000     0.683800000000    -0.460807   
O317     O      0.429090000000     0.929040000000     0.748720000000    -0.473484   
O318     O      0.000410000000     0.500810000000     0.681960000000    -0.617679   
O319     O      0.429270000000     0.929300000000     0.681950000000    -0.623428   
O320     O      0.000540000000     0.501020000000     0.748740000000    -0.466859   
O321     O      0.051350000000     0.662510000000     0.464490000000    -0.364753   
O322     O      0.012850000000     0.625710000000     0.965760000000    -0.346295   
O323     O      0.962730000000     0.767610000000     0.551640000000    -0.360642   
O324     O      0.465060000000     0.804390000000     0.513160000000    -0.349769   
O325     O      0.964500000000     0.662540000000     0.551700000000    -0.362872   
O326     O      0.465490000000     0.625730000000     0.513200000000    -0.35033    
O327     O      0.051340000000     0.767630000000     0.463250000000    -0.354479   
O328     O      0.012860000000     0.804410000000     0.965190000000    -0.345512   
O329     O      0.064760000000     0.716240000000     0.508190000000    -0.339738   
O330     O      0.073800000000     0.714410000000     0.929700000000    -0.512204   
O331     O      0.008530000000     0.715730000000     0.563890000000    -0.508931   
O332     O      0.430110000000     0.714450000000     0.575020000000    -0.325802   
O333     O      0.000150000000     0.683690000000     0.500220000000    -0.462322   
O334     O      0.000000000000     0.746150000000     0.500070000000    -0.605345   
O335     O      0.466630000000     0.767590000000     0.878600000000    -0.35883    
O336     O      0.964660000000     0.804380000000     0.917090000000    -0.349949   
O337     O      0.378300000000     0.662540000000     0.965480000000    -0.367153   
O338     O      0.416780000000     0.625710000000     0.464580000000    -0.350878   
O339     O      0.378340000000     0.767640000000     0.967360000000    -0.356724   
O340     O      0.416820000000     0.804420000000     0.465030000000    -0.349626   
O341     O      0.465420000000     0.662520000000     0.878580000000    -0.361291   
O342     O      0.964110000000     0.625730000000     0.917090000000    -0.350182   
O343     O      0.421100000000     0.715480000000     0.866400000000    -0.513762   
O344     O      0.999540000000     0.714570000000     0.855250000000    -0.335014   
O345     O      0.364880000000     0.716510000000     0.922110000000    -0.338969   
O346     O      0.355860000000     0.714270000000     0.500580000000    -0.513483   
O347     O      0.429660000000     0.746150000000     0.930200000000    -0.610122   
O348     O      0.429490000000     0.683690000000     0.930060000000    -0.467892   
O349     O      0.000580000000     0.748630000000     0.929130000000    -0.465125   
O350     O      0.429280000000     0.681890000000     0.500920000000    -0.624799   
O351     O      0.000360000000     0.681880000000     0.929370000000    -0.616017   
O352     O      0.429100000000     0.748650000000     0.501120000000    -0.475097   
O353     O      0.267350000000     0.551580000000     0.464720000000    -0.365664   
O354     O      0.304190000000     0.513110000000     0.965540000000    -0.352588   
O355     O      0.162300000000     0.462480000000     0.551710000000    -0.359687   
O356     O      0.125500000000     0.964780000000     0.513250000000    -0.350945   
O357     O      0.267360000000     0.465240000000     0.551710000000    -0.36175    
O358     O      0.304170000000     0.966230000000     0.513210000000    -0.351659   
O359     O      0.162240000000     0.551530000000     0.463010000000    -0.354965   
O360     O      0.125450000000     0.513070000000     0.965450000000    -0.351303   
O361     O      0.213450000000     0.564980000000     0.508190000000    -0.340024   
O362     O      0.215560000000     0.574000000000     0.929720000000    -0.511698   
O363     O      0.213770000000     0.508760000000     0.563940000000    -0.514158   
O364     O      0.215750000000     0.930370000000     0.575050000000    -0.326852   
O365     O      0.246190000000     0.500390000000     0.500230000000    -0.470019   
O366     O      0.183700000000     0.500230000000     0.500110000000    -0.612108   
O367     O      0.162260000000     0.967960000000     0.878680000000    -0.359634   
O368     O      0.125480000000     0.465280000000     0.917140000000    -0.348242   
O369     O      0.267380000000     0.878560000000     0.965910000000    -0.366883   
O370     O      0.304200000000     0.917040000000     0.464730000000    -0.349798   
O371     O      0.162260000000     0.878570000000     0.967010000000    -0.356307   
O372     O      0.125460000000     0.917030000000     0.464950000000    -0.348636   
O373     O      0.267350000000     0.964580000000     0.878640000000    -0.361341   
O374     O      0.304180000000     0.463950000000     0.917140000000    -0.349143   
O375     O      0.213500000000     0.921410000000     0.866360000000    -0.51259    
O376     O      0.215890000000     0.499760000000     0.855290000000    -0.326259   
O377     O      0.213720000000     0.865160000000     0.922120000000    -0.338464   
O378     O      0.215430000000     0.856120000000     0.500620000000    -0.513079   
O379     O      0.183700000000     0.929890000000     0.930230000000    -0.608907   
O380     O      0.246190000000     0.929750000000     0.930100000000    -0.466739   
O381     O      0.181240000000     0.500770000000     0.929200000000    -0.472951   
O382     O      0.248030000000     0.929560000000     0.500970000000    -0.623192   
O383     O      0.248020000000     0.500590000000     0.929350000000    -0.622562   
O384     O      0.181260000000     0.929320000000     0.501170000000    -0.473549   
O385     O      0.878340000000     0.965200000000     0.162620000000    -0.366428   
O386     O      0.916820000000     0.466110000000     0.125790000000    -0.349353   
O387     O      0.966850000000     0.051530000000     0.267710000000    -0.359259   
O388     O      0.464420000000     0.013070000000     0.304490000000    -0.343981   
O389     O      0.965230000000     0.051600000000     0.162630000000    -0.361988   
O390     O      0.464350000000     0.013110000000     0.125810000000    -0.344124   
O391     O      0.878320000000     0.962350000000     0.267710000000    -0.355548   
O392     O      0.916770000000     0.464650000000     0.304510000000    -0.348889   
O393     O      0.864850000000     0.008030000000     0.216980000000    -0.332968   
O394     O      0.855870000000     0.429610000000     0.214050000000    -0.513447   
O395     O      0.921130000000     0.063790000000     0.215750000000    -0.512929   
O396     O      0.499560000000     0.074900000000     0.214590000000    -0.325885   
O397     O      0.929510000000     0.000120000000     0.183800000000    -0.46101    
O398     O      0.929640000000     0.999970000000     0.246280000000    -0.623747   
O399     O      0.463090000000     0.378530000000     0.267690000000    -0.359247   
O400     O      0.965170000000     0.417000000000     0.304490000000    -0.351368   
O401     O      0.551320000000     0.464620000000     0.162630000000    -0.364874   
O402     O      0.512840000000     0.964040000000     0.125790000000    -0.351722   
O403     O      0.551290000000     0.468040000000     0.267740000000    -0.354477   
O404     O      0.512840000000     0.965390000000     0.304530000000    -0.351068   
O405     O      0.464150000000     0.378490000000     0.162610000000    -0.361647   
O406     O      0.965370000000     0.417000000000     0.125800000000    -0.350967   
O407     O      0.508550000000     0.366320000000     0.215500000000    -0.514009   
O408     O      0.930110000000     0.355180000000     0.214710000000    -0.325432   
O409     O      0.564830000000     0.422090000000     0.217230000000    -0.339619   
O410     O      0.573780000000     0.000480000000     0.213930000000    -0.497301   
O411     O      0.500010000000     0.430120000000     0.246280000000    -0.612404   
O412     O      0.500150000000     0.429980000000     0.183800000000    -0.469916   
O413     O      0.929090000000     0.429040000000     0.248720000000    -0.473496   
O414     O      0.500410000000     0.000810000000     0.181960000000    -0.618165   
O415     O      0.929270000000     0.429300000000     0.181950000000    -0.623224   
O416     O      0.500540000000     0.001020000000     0.248740000000    -0.467057   
O417     O      0.551350000000     0.162510000000     0.964490000000    -0.366999   
O418     O      0.512850000000     0.125700000000     0.465760000000    -0.350192   
O419     O      0.462730000000     0.267610000000     0.051640000000    -0.358557   
O420     O      0.965060000000     0.304390000000     0.013160000000    -0.342981   
O421     O      0.464500000000     0.162540000000     0.051700000000    -0.360707   
O422     O      0.965490000000     0.125730000000     0.013200000000    -0.343275   
O423     O      0.551340000000     0.267620000000     0.963250000000    -0.356498   
O424     O      0.512860000000     0.304410000000     0.465190000000    -0.349704   
O425     O      0.564770000000     0.216240000000     0.008190000000    -0.330846   
O426     O      0.573800000000     0.214410000000     0.429700000000    -0.513432   
O427     O      0.508530000000     0.215730000000     0.063890000000    -0.51414    
O428     O      0.930110000000     0.214450000000     0.075020000000    -0.325779   
O429     O      0.500150000000     0.183690000000     0.000220000000    -0.459705   
O430     O      0.500000000000     0.246150000000     0.000070000000    -0.602934   
O431     O      0.966630000000     0.267600000000     0.378600000000    -0.360012   
O432     O      0.464660000000     0.304380000000     0.417090000000    -0.349911   
O433     O      0.878300000000     0.162540000000     0.465480000000    -0.365125   
O434     O      0.916780000000     0.125710000000     0.964580000000    -0.351458   
O435     O      0.878340000000     0.267640000000     0.467360000000    -0.354783   
O436     O      0.916820000000     0.304410000000     0.965030000000    -0.350511   
O437     O      0.965420000000     0.162520000000     0.378580000000    -0.362339   
O438     O      0.464110000000     0.125730000000     0.417090000000    -0.349816   
O439     O      0.921100000000     0.215480000000     0.366400000000    -0.512907   
O440     O      0.499540000000     0.214570000000     0.355250000000    -0.32552    
O441     O      0.864880000000     0.216510000000     0.422110000000    -0.339903   
O442     O      0.855860000000     0.214270000000     0.000570000000    -0.490831   
O443     O      0.929660000000     0.246150000000     0.430200000000    -0.611068   
O444     O      0.929490000000     0.183690000000     0.430060000000    -0.468794   
O445     O      0.500580000000     0.248630000000     0.429130000000    -0.475125   
O446     O      0.929270000000     0.181890000000     0.000920000000    -0.613777   
O447     O      0.500360000000     0.181880000000     0.429370000000    -0.625088   
O448     O      0.929100000000     0.248650000000     0.001120000000    -0.462944   
O449     O      0.767350000000     0.051580000000     0.964720000000    -0.366673   
O450     O      0.804190000000     0.013110000000     0.465540000000    -0.344871   
O451     O      0.662300000000     0.962480000000     0.051710000000    -0.359832   
O452     O      0.625500000000     0.464780000000     0.013250000000    -0.3417     
O453     O      0.767360000000     0.965240000000     0.051710000000    -0.362049   
O454     O      0.804170000000     0.466230000000     0.013210000000    -0.342154   
O455     O      0.662240000000     0.051530000000     0.963010000000    -0.355819   
O456     O      0.625450000000     0.013070000000     0.465450000000    -0.343825   
O457     O      0.713450000000     0.064980000000     0.008190000000    -0.330991   
O458     O      0.715560000000     0.074000000000     0.429710000000    -0.513433   
O459     O      0.713770000000     0.008760000000     0.063940000000    -0.50973    
O460     O      0.715750000000     0.430370000000     0.075050000000    -0.326763   
O461     O      0.746190000000     0.000390000000     0.000230000000    -0.452473   
O462     O      0.683700000000     0.000230000000     0.000110000000    -0.595965   
O463     O      0.662260000000     0.467960000000     0.378680000000    -0.359436   
O464     O      0.625480000000     0.965280000000     0.417140000000    -0.350896   
O465     O      0.767380000000     0.378560000000     0.465910000000    -0.365471   
O466     O      0.804200000000     0.417040000000     0.964730000000    -0.352372   
O467     O      0.662260000000     0.378570000000     0.467010000000    -0.354995   
O468     O      0.625460000000     0.417030000000     0.964950000000    -0.351444   
O469     O      0.767350000000     0.464580000000     0.378640000000    -0.361103   
O470     O      0.804180000000     0.963960000000     0.417140000000    -0.351551   
O471     O      0.713500000000     0.421410000000     0.366360000000    -0.513994   
O472     O      0.715890000000     0.999760000000     0.355300000000    -0.336018   
O473     O      0.713720000000     0.365160000000     0.422120000000    -0.339748   
O474     O      0.715430000000     0.356120000000     0.000620000000    -0.490739   
O475     O      0.683700000000     0.429890000000     0.430230000000    -0.611968   
O476     O      0.746190000000     0.429750000000     0.430100000000    -0.469914   
O477     O      0.681240000000     0.000770000000     0.429200000000    -0.467342   
O478     O      0.748030000000     0.429560000000     0.000970000000    -0.615019   
O479     O      0.748020000000     0.000590000000     0.429350000000    -0.617756   
O480     O      0.681260000000     0.429320000000     0.001170000000    -0.464345   
O481     O      0.878340000000     0.965200000000     0.662620000000    -0.366502   
O482     O      0.916820000000     0.466110000000     0.625790000000    -0.349785   
O483     O      0.966850000000     0.051530000000     0.767710000000    -0.359213   
O484     O      0.464420000000     0.013070000000     0.804500000000    -0.343926   
O485     O      0.965230000000     0.051600000000     0.662630000000    -0.362056   
O486     O      0.464350000000     0.013110000000     0.625810000000    -0.344535   
O487     O      0.878320000000     0.962350000000     0.767710000000    -0.355512   
O488     O      0.916770000000     0.464650000000     0.804510000000    -0.348913   
O489     O      0.864850000000     0.008030000000     0.716980000000    -0.332937   
O490     O      0.855870000000     0.429610000000     0.714050000000    -0.51343    
O491     O      0.921130000000     0.063790000000     0.715750000000    -0.512881   
O492     O      0.499560000000     0.074900000000     0.714590000000    -0.325921   
O493     O      0.929510000000     0.000120000000     0.683800000000    -0.460971   
O494     O      0.929640000000     0.999970000000     0.746270000000    -0.623632   
O495     O      0.463090000000     0.378530000000     0.767690000000    -0.359199   
O496     O      0.965170000000     0.417000000000     0.804490000000    -0.351379   
O497     O      0.551320000000     0.464620000000     0.662630000000    -0.364937   
O498     O      0.512840000000     0.964040000000     0.625790000000    -0.352149   
O499     O      0.551290000000     0.468040000000     0.767740000000    -0.354439   
O500     O      0.512840000000     0.965390000000     0.804530000000    -0.351083   
O501     O      0.464150000000     0.378490000000     0.662610000000    -0.361727   
O502     O      0.965370000000     0.417000000000     0.625800000000    -0.351402   
O503     O      0.508550000000     0.366320000000     0.715500000000    -0.513967   
O504     O      0.930110000000     0.355180000000     0.714720000000    -0.325451   
O505     O      0.564830000000     0.422090000000     0.717230000000    -0.339603   
O506     O      0.573780000000     0.000480000000     0.713930000000    -0.497296   
O507     O      0.500010000000     0.430120000000     0.746280000000    -0.612378   
O508     O      0.500150000000     0.429980000000     0.683800000000    -0.469899   
O509     O      0.929090000000     0.429040000000     0.748720000000    -0.473453   
O510     O      0.500410000000     0.000810000000     0.681960000000    -0.618064   
O511     O      0.929270000000     0.429300000000     0.681950000000    -0.623131   
O512     O      0.500540000000     0.001020000000     0.748740000000    -0.467025   
O513     O      0.551350000000     0.162510000000     0.464490000000    -0.365339   
O514     O      0.512850000000     0.125700000000     0.965760000000    -0.35204    
O515     O      0.462730000000     0.267610000000     0.551640000000    -0.35948    
O516     O      0.965060000000     0.304390000000     0.513160000000    -0.351157   
O517     O      0.464500000000     0.162540000000     0.551700000000    -0.361596   
O518     O      0.965490000000     0.125730000000     0.513200000000    -0.351449   
O519     O      0.551340000000     0.267620000000     0.463250000000    -0.355021   
O520     O      0.512860000000     0.304410000000     0.965190000000    -0.351564   
O521     O      0.564770000000     0.216240000000     0.508190000000    -0.339844   
O522     O      0.573800000000     0.214410000000     0.929700000000    -0.512009   
O523     O      0.508530000000     0.215730000000     0.563890000000    -0.513722   
O524     O      0.930110000000     0.214450000000     0.575020000000    -0.325847   
O525     O      0.500150000000     0.183690000000     0.500220000000    -0.469924   
O526     O      0.500000000000     0.246150000000     0.500070000000    -0.612347   
O527     O      0.966630000000     0.267600000000     0.878600000000    -0.35959    
O528     O      0.464660000000     0.304380000000     0.917090000000    -0.348741   
O529     O      0.878300000000     0.162540000000     0.965480000000    -0.366796   
O530     O      0.916780000000     0.125710000000     0.464580000000    -0.349741   
O531     O      0.878340000000     0.267640000000     0.967360000000    -0.356452   
O532     O      0.916820000000     0.304410000000     0.465030000000    -0.348821   
O533     O      0.965420000000     0.162520000000     0.878580000000    -0.361922   
O534     O      0.464110000000     0.125730000000     0.917090000000    -0.348643   
O535     O      0.921100000000     0.215480000000     0.866400000000    -0.512741   
O536     O      0.499540000000     0.214570000000     0.855250000000    -0.325353   
O537     O      0.864880000000     0.216510000000     0.922110000000    -0.338842   
O538     O      0.855860000000     0.214270000000     0.500570000000    -0.513237   
O539     O      0.929660000000     0.246150000000     0.930200000000    -0.609038   
O540     O      0.929490000000     0.183690000000     0.930060000000    -0.466718   
O541     O      0.500580000000     0.248630000000     0.929130000000    -0.473075   
O542     O      0.929280000000     0.181890000000     0.500920000000    -0.623379   
O543     O      0.500360000000     0.181880000000     0.929370000000    -0.623097   
O544     O      0.929100000000     0.248650000000     0.501120000000    -0.473612   
O545     O      0.767350000000     0.051580000000     0.464720000000    -0.365015   
O546     O      0.804190000000     0.013110000000     0.965540000000    -0.34672    
O547     O      0.662300000000     0.962480000000     0.551710000000    -0.360744   
O548     O      0.625500000000     0.464780000000     0.513250000000    -0.349883   
O549     O      0.767360000000     0.965240000000     0.551710000000    -0.362931   
O550     O      0.804170000000     0.466230000000     0.513210000000    -0.350331   
O551     O      0.662240000000     0.051530000000     0.463010000000    -0.35434    
O552     O      0.625450000000     0.013070000000     0.965450000000    -0.345704   
O553     O      0.713450000000     0.064980000000     0.508190000000    -0.339926   
O554     O      0.715560000000     0.074000000000     0.929720000000    -0.511887   
O555     O      0.713770000000     0.008760000000     0.563940000000    -0.509294   
O556     O      0.715750000000     0.430370000000     0.575050000000    -0.326823   
O557     O      0.746190000000     0.000390000000     0.500230000000    -0.462647   
O558     O      0.683700000000     0.000230000000     0.500110000000    -0.605328   
O559     O      0.662260000000     0.467960000000     0.878680000000    -0.359015   
O560     O      0.625480000000     0.965280000000     0.917140000000    -0.349728   
O561     O      0.767380000000     0.378560000000     0.965910000000    -0.367149   
O562     O      0.804200000000     0.417040000000     0.464730000000    -0.350646   
O563     O      0.662260000000     0.378570000000     0.967010000000    -0.356663   
O564     O      0.625460000000     0.417030000000     0.464950000000    -0.349746   
O565     O      0.767350000000     0.464580000000     0.878640000000    -0.360694   
O566     O      0.804180000000     0.963960000000     0.917140000000    -0.350384   
O567     O      0.713500000000     0.421410000000     0.866360000000    -0.513828   
O568     O      0.715890000000     0.999760000000     0.855290000000    -0.335703   
O569     O      0.713720000000     0.365160000000     0.922120000000    -0.338682   
O570     O      0.715430000000     0.356120000000     0.500620000000    -0.51317    
O571     O      0.683700000000     0.429890000000     0.930230000000    -0.609921   
O572     O      0.746190000000     0.429750000000     0.930100000000    -0.467828   
O573     O      0.681240000000     0.000770000000     0.929200000000    -0.465317   
O574     O      0.748030000000     0.429560000000     0.500970000000    -0.624593   
O575     O      0.748020000000     0.000590000000     0.929350000000    -0.615785   
O576     O      0.681260000000     0.429320000000     0.501170000000    -0.475008   
O577     O      0.878340000000     0.465200000000     0.162620000000    -0.364842   
O578     O      0.916820000000     0.966120000000     0.125790000000    -0.350783   
O579     O      0.966850000000     0.551530000000     0.267710000000    -0.360014   
O580     O      0.464420000000     0.513070000000     0.304490000000    -0.349905   
O581     O      0.965230000000     0.551600000000     0.162630000000    -0.362257   
O582     O      0.464350000000     0.513110000000     0.125810000000    -0.349912   
O583     O      0.878320000000     0.462350000000     0.267710000000    -0.354582   
O584     O      0.916770000000     0.964650000000     0.304510000000    -0.350189   
O585     O      0.864850000000     0.508030000000     0.216980000000    -0.339415   
O586     O      0.855870000000     0.929610000000     0.214050000000    -0.512577   
O587     O      0.921130000000     0.563790000000     0.215750000000    -0.512787   
O588     O      0.499560000000     0.574900000000     0.214590000000    -0.325568   
O589     O      0.929510000000     0.500120000000     0.183800000000    -0.468795   
O590     O      0.929640000000     0.499970000000     0.246280000000    -0.611141   
O591     O      0.463090000000     0.878530000000     0.267690000000    -0.359051   
O592     O      0.965170000000     0.917000000000     0.304490000000    -0.350777   
O593     O      0.551320000000     0.964620000000     0.162630000000    -0.366083   
O594     O      0.512840000000     0.464040000000     0.125790000000    -0.350465   
O595     O      0.551290000000     0.968040000000     0.267740000000    -0.355795   
O596     O      0.512840000000     0.465390000000     0.304530000000    -0.349475   
O597     O      0.464150000000     0.878490000000     0.162610000000    -0.361369   
O598     O      0.965370000000     0.917000000000     0.125800000000    -0.35016    
O599     O      0.508550000000     0.866320000000     0.215500000000    -0.513904   
O600     O      0.930110000000     0.855180000000     0.214710000000    -0.325336   
O601     O      0.564830000000     0.922090000000     0.217230000000    -0.338874   
O602     O      0.573780000000     0.500480000000     0.213930000000    -0.513393   
O603     O      0.500010000000     0.930120000000     0.246280000000    -0.611167   
O604     O      0.500150000000     0.929980000000     0.183800000000    -0.468428   
O605     O      0.929090000000     0.929040000000     0.248720000000    -0.47202    
O606     O      0.500410000000     0.500810000000     0.181960000000    -0.624871   
O607     O      0.929270000000     0.929300000000     0.181950000000    -0.622061   
O608     O      0.500540000000     0.501020000000     0.248740000000    -0.474778   
O609     O      0.551350000000     0.662510000000     0.964490000000    -0.367058   
O610     O      0.512850000000     0.625710000000     0.465760000000    -0.350543   
O611     O      0.462730000000     0.767610000000     0.051640000000    -0.358533   
O612     O      0.965060000000     0.804390000000     0.013160000000    -0.342992   
O613     O      0.464500000000     0.662540000000     0.051700000000    -0.360736   
O614     O      0.965490000000     0.625730000000     0.013200000000    -0.343525   
O615     O      0.551340000000     0.767630000000     0.963250000000    -0.356663   
O616     O      0.512860000000     0.804410000000     0.465190000000    -0.349761   
O617     O      0.564770000000     0.716240000000     0.008190000000    -0.33086    
O618     O      0.573800000000     0.714410000000     0.429700000000    -0.513415   
O619     O      0.508530000000     0.715730000000     0.063890000000    -0.514112   
O620     O      0.930110000000     0.714450000000     0.075020000000    -0.325797   
O621     O      0.500150000000     0.683690000000     0.000220000000    -0.459683   
O622     O      0.500000000000     0.746150000000     0.000070000000    -0.602918   
O623     O      0.966630000000     0.767590000000     0.378600000000    -0.359901   
O624     O      0.464660000000     0.804380000000     0.417090000000    -0.349926   
O625     O      0.878300000000     0.662540000000     0.465480000000    -0.365162   
O626     O      0.916780000000     0.625710000000     0.964580000000    -0.351728   
O627     O      0.878340000000     0.767640000000     0.467360000000    -0.354744   
O628     O      0.916820000000     0.804420000000     0.965030000000    -0.350443   
O629     O      0.965420000000     0.662520000000     0.378580000000    -0.362386   
O630     O      0.464110000000     0.625730000000     0.417090000000    -0.350085   
O631     O      0.921100000000     0.715480000000     0.366400000000    -0.512875   
O632     O      0.499540000000     0.714570000000     0.355250000000    -0.325546   
O633     O      0.864880000000     0.716510000000     0.422110000000    -0.339889   
O634     O      0.855860000000     0.714270000000     0.000570000000    -0.490826   
O635     O      0.929660000000     0.746150000000     0.430200000000    -0.611061   
O636     O      0.929490000000     0.683690000000     0.430060000000    -0.468803   
O637     O      0.500580000000     0.748630000000     0.429130000000    -0.475098   
O638     O      0.929270000000     0.681890000000     0.000920000000    -0.613723   
O639     O      0.500360000000     0.681880000000     0.429370000000    -0.625034   
O640     O      0.929100000000     0.748650000000     0.001120000000    -0.462922   
O641     O      0.767350000000     0.551580000000     0.964720000000    -0.367292   
O642     O      0.804190000000     0.513110000000     0.465540000000    -0.35076    
O643     O      0.662300000000     0.462480000000     0.051710000000    -0.358704   
O644     O      0.625500000000     0.964780000000     0.013250000000    -0.34305    
O645     O      0.767360000000     0.465240000000     0.051710000000    -0.360845   
O646     O      0.804170000000     0.966230000000     0.013210000000    -0.343503   
O647     O      0.662240000000     0.551530000000     0.963010000000    -0.356506   
O648     O      0.625450000000     0.513070000000     0.465450000000    -0.349712   
O649     O      0.713450000000     0.564980000000     0.008190000000    -0.331133   
O650     O      0.715560000000     0.574000000000     0.429710000000    -0.513234   
O651     O      0.713770000000     0.508760000000     0.063940000000    -0.514299   
O652     O      0.715750000000     0.930370000000     0.075050000000    -0.326819   
O653     O      0.746190000000     0.500390000000     0.000230000000    -0.459755   
O654     O      0.683700000000     0.500230000000     0.000110000000    -0.60264    
O655     O      0.662260000000     0.967960000000     0.378680000000    -0.360102   
O656     O      0.625480000000     0.465280000000     0.417140000000    -0.349692   
O657     O      0.767380000000     0.878560000000     0.465910000000    -0.365175   
O658     O      0.804200000000     0.917040000000     0.964730000000    -0.351536   
O659     O      0.662260000000     0.878570000000     0.467010000000    -0.354694   
O660     O      0.625460000000     0.917030000000     0.964950000000    -0.350602   
O661     O      0.767350000000     0.964580000000     0.378640000000    -0.361724   
O662     O      0.804180000000     0.463950000000     0.417140000000    -0.350325   
O663     O      0.713500000000     0.921410000000     0.366360000000    -0.512979   
O664     O      0.715890000000     0.499760000000     0.355300000000    -0.326588   
O665     O      0.713720000000     0.865160000000     0.422120000000    -0.339605   
O666     O      0.715430000000     0.856120000000     0.000620000000    -0.490657   
O667     O      0.683700000000     0.929890000000     0.430230000000    -0.610894   
O668     O      0.746190000000     0.929750000000     0.430100000000    -0.468794   
O669     O      0.681240000000     0.500780000000     0.429200000000    -0.474959   
O670     O      0.748030000000     0.929560000000     0.000970000000    -0.613476   
O671     O      0.748020000000     0.500590000000     0.429350000000    -0.62454    
O672     O      0.681260000000     0.929320000000     0.001170000000    -0.462916   
O673     O      0.878340000000     0.465200000000     0.662620000000    -0.364916   
O674     O      0.916820000000     0.966120000000     0.625790000000    -0.351216   
O675     O      0.966850000000     0.551530000000     0.767710000000    -0.359968   
O676     O      0.464420000000     0.513070000000     0.804500000000    -0.349849   
O677     O      0.965230000000     0.551600000000     0.662630000000    -0.362326   
O678     O      0.464350000000     0.513110000000     0.625810000000    -0.350337   
O679     O      0.878320000000     0.462350000000     0.767710000000    -0.354547   
O680     O      0.916770000000     0.964650000000     0.804510000000    -0.350211   
O681     O      0.864850000000     0.508030000000     0.716980000000    -0.33939    
O682     O      0.855870000000     0.929610000000     0.714050000000    -0.51256    
O683     O      0.921130000000     0.563790000000     0.715750000000    -0.512739   
O684     O      0.499560000000     0.574900000000     0.714590000000    -0.325603   
O685     O      0.929510000000     0.500120000000     0.683800000000    -0.468767   
O686     O      0.929640000000     0.499970000000     0.746270000000    -0.611031   
O687     O      0.463090000000     0.878530000000     0.767690000000    -0.359005   
O688     O      0.965170000000     0.917000000000     0.804490000000    -0.350787   
O689     O      0.551320000000     0.964620000000     0.662630000000    -0.366147   
O690     O      0.512840000000     0.464040000000     0.625790000000    -0.350891   
O691     O      0.551290000000     0.968040000000     0.767740000000    -0.355756   
O692     O      0.512840000000     0.465390000000     0.804530000000    -0.349492   
O693     O      0.464150000000     0.878490000000     0.662610000000    -0.361449   
O694     O      0.965370000000     0.917000000000     0.625800000000    -0.350593   
O695     O      0.508550000000     0.866320000000     0.715500000000    -0.513861   
O696     O      0.930110000000     0.855180000000     0.714720000000    -0.325357   
O697     O      0.564830000000     0.922090000000     0.717230000000    -0.338858   
O698     O      0.573780000000     0.500480000000     0.713930000000    -0.513402   
O699     O      0.500010000000     0.930120000000     0.746280000000    -0.611141   
O700     O      0.500150000000     0.929980000000     0.683800000000    -0.468411   
O701     O      0.929090000000     0.929040000000     0.748720000000    -0.471978   
O702     O      0.500410000000     0.500810000000     0.681960000000    -0.624779   
O703     O      0.929270000000     0.929300000000     0.681950000000    -0.621968   
O704     O      0.500540000000     0.501020000000     0.748740000000    -0.474749   
O705     O      0.551350000000     0.662510000000     0.464490000000    -0.365393   
O706     O      0.512850000000     0.625710000000     0.965760000000    -0.352399   
O707     O      0.462730000000     0.767610000000     0.551640000000    -0.35945    
O708     O      0.965060000000     0.804390000000     0.513160000000    -0.351166   
O709     O      0.464500000000     0.662540000000     0.551700000000    -0.361635   
O710     O      0.965490000000     0.625730000000     0.513200000000    -0.351714   
O711     O      0.551340000000     0.767630000000     0.463250000000    -0.355187   
O712     O      0.512860000000     0.804410000000     0.965190000000    -0.35162    
O713     O      0.564770000000     0.716240000000     0.508190000000    -0.33983    
O714     O      0.573800000000     0.714410000000     0.929700000000    -0.511992   
O715     O      0.508530000000     0.715730000000     0.563890000000    -0.51369    
O716     O      0.930110000000     0.714450000000     0.575020000000    -0.325865   
O717     O      0.500150000000     0.683690000000     0.500220000000    -0.46992    
O718     O      0.500000000000     0.746150000000     0.500070000000    -0.612333   
O719     O      0.966630000000     0.767590000000     0.878600000000    -0.35948    
O720     O      0.464660000000     0.804380000000     0.917090000000    -0.348704   
O721     O      0.878300000000     0.662540000000     0.965480000000    -0.366835   
O722     O      0.916780000000     0.625710000000     0.464580000000    -0.350008   
O723     O      0.878340000000     0.767640000000     0.967360000000    -0.356412   
O724     O      0.916820000000     0.804420000000     0.465030000000    -0.348755   
O725     O      0.965420000000     0.662520000000     0.878580000000    -0.361968   
O726     O      0.464110000000     0.625730000000     0.917090000000    -0.348917   
O727     O      0.921100000000     0.715480000000     0.866400000000    -0.512708   
O728     O      0.499540000000     0.714570000000     0.855250000000    -0.325376   
O729     O      0.864880000000     0.716510000000     0.922110000000    -0.338828   
O730     O      0.855860000000     0.714270000000     0.500570000000    -0.513247   
O731     O      0.929660000000     0.746150000000     0.930200000000    -0.609031   
O732     O      0.929490000000     0.683690000000     0.930060000000    -0.466726   
O733     O      0.500580000000     0.748630000000     0.929130000000    -0.473048   
O734     O      0.929280000000     0.681890000000     0.500920000000    -0.623335   
O735     O      0.500360000000     0.681880000000     0.929370000000    -0.623049   
O736     O      0.929100000000     0.748650000000     0.501120000000    -0.473593   
O737     O      0.767350000000     0.551580000000     0.464720000000    -0.365633   
O738     O      0.804190000000     0.513110000000     0.965540000000    -0.352603   
O739     O      0.662300000000     0.462480000000     0.551710000000    -0.359614   
O740     O      0.625500000000     0.964780000000     0.513250000000    -0.351226   
O741     O      0.767360000000     0.465240000000     0.551710000000    -0.361718   
O742     O      0.804170000000     0.966230000000     0.513210000000    -0.351674   
O743     O      0.662240000000     0.551530000000     0.463010000000    -0.355018   
O744     O      0.625450000000     0.513070000000     0.965450000000    -0.35159    
O745     O      0.713450000000     0.564980000000     0.508190000000    -0.340094   
O746     O      0.715560000000     0.574000000000     0.929720000000    -0.511686   
O747     O      0.713770000000     0.508760000000     0.563940000000    -0.513876   
O748     O      0.715750000000     0.930370000000     0.575050000000    -0.326881   
O749     O      0.746190000000     0.500390000000     0.500230000000    -0.469989   
O750     O      0.683700000000     0.500230000000     0.500110000000    -0.612058   
O751     O      0.662260000000     0.967960000000     0.878680000000    -0.359685   
O752     O      0.625480000000     0.465280000000     0.917140000000    -0.348522   
O753     O      0.767380000000     0.878560000000     0.965910000000    -0.366852   
O754     O      0.804200000000     0.917040000000     0.464730000000    -0.349815   
O755     O      0.662260000000     0.878570000000     0.967010000000    -0.356357   
O756     O      0.625460000000     0.917030000000     0.464950000000    -0.348912   
O757     O      0.767350000000     0.964580000000     0.878640000000    -0.36131    
O758     O      0.804180000000     0.463950000000     0.917140000000    -0.34916    
O759     O      0.713500000000     0.921410000000     0.866360000000    -0.51281    
O760     O      0.715890000000     0.499760000000     0.855290000000    -0.326295   
O761     O      0.713720000000     0.865160000000     0.922120000000    -0.338541   
O762     O      0.715430000000     0.856120000000     0.500620000000    -0.513068   
O763     O      0.683700000000     0.929890000000     0.930230000000    -0.608856   
O764     O      0.746190000000     0.929750000000     0.930100000000    -0.466712   
O765     O      0.681240000000     0.500770000000     0.929200000000    -0.472976   
O766     O      0.748030000000     0.929560000000     0.500970000000    -0.623177   
O767     O      0.748020000000     0.500590000000     0.929350000000    -0.622552   
O768     O      0.681260000000     0.929320000000     0.501170000000    -0.47356    
Zr1      Zr     0.400470000000     0.463790000000     0.215190000000     1.2982     
Zr2      Zr     0.965630000000     0.029390000000     0.215170000000     1.2954     
Zr3      Zr     0.464030000000     0.400700000000     0.215150000000     1.29876    
Zr4      Zr     0.029180000000     0.966310000000     0.215200000000     1.28617    
Zr5      Zr     0.964840000000     0.465060000000     0.156100000000     1.25443    
Zr6      Zr     0.464810000000     0.965030000000     0.274200000000     1.25583    
Zr7      Zr     0.029190000000     0.215080000000     0.463880000000     1.30088    
Zr8      Zr     0.464020000000     0.215080000000     0.029500000000     1.30252    
Zr9      Zr     0.965630000000     0.215060000000     0.400780000000     1.28857    
Zr10     Zr     0.400470000000     0.215100000000     0.966400000000     1.27736    
Zr11     Zr     0.464810000000     0.156010000000     0.465150000000     1.2685     
Zr12     Zr     0.964840000000     0.274090000000     0.965120000000     1.23252    
Zr13     Zr     0.214800000000     0.029400000000     0.463900000000     1.30038    
Zr14     Zr     0.214810000000     0.464270000000     0.029530000000     1.30205    
Zr15     Zr     0.214790000000     0.965860000000     0.400810000000     1.28849    
Zr16     Zr     0.214810000000     0.400720000000     0.966440000000     1.27739    
Zr17     Zr     0.273890000000     0.465070000000     0.465160000000     1.2682     
Zr18     Zr     0.155780000000     0.965050000000     0.965190000000     1.23293    
Zr19     Zr     0.400470000000     0.463790000000     0.715190000000     1.29838    
Zr20     Zr     0.965630000000     0.029390000000     0.715170000000     1.29558    
Zr21     Zr     0.464030000000     0.400700000000     0.715150000000     1.29888    
Zr22     Zr     0.029180000000     0.966310000000     0.715210000000     1.2863     
Zr23     Zr     0.964840000000     0.465060000000     0.656090000000     1.25432    
Zr24     Zr     0.464810000000     0.965030000000     0.774200000000     1.25587    
Zr25     Zr     0.029190000000     0.215080000000     0.963880000000     1.28225    
Zr26     Zr     0.464020000000     0.215080000000     0.529500000000     1.29896    
Zr27     Zr     0.965630000000     0.215060000000     0.900780000000     1.28861    
Zr28     Zr     0.400470000000     0.215100000000     0.466400000000     1.29782    
Zr29     Zr     0.464810000000     0.156010000000     0.965150000000     1.2497     
Zr30     Zr     0.964840000000     0.274090000000     0.465120000000     1.25118    
Zr31     Zr     0.214800000000     0.029400000000     0.963900000000     1.2818     
Zr32     Zr     0.214810000000     0.464270000000     0.529530000000     1.29841    
Zr33     Zr     0.214790000000     0.965860000000     0.900810000000     1.28847    
Zr34     Zr     0.214810000000     0.400720000000     0.466440000000     1.29787    
Zr35     Zr     0.273890000000     0.465070000000     0.965160000000     1.24947    
Zr36     Zr     0.155780000000     0.965050000000     0.465190000000     1.25158    
Zr37     Zr     0.400470000000     0.963790000000     0.215190000000     1.28925    
Zr38     Zr     0.965630000000     0.529390000000     0.215170000000     1.2883     
Zr39     Zr     0.464030000000     0.900700000000     0.215150000000     1.29889    
Zr40     Zr     0.029180000000     0.466310000000     0.215200000000     1.3008     
Zr41     Zr     0.964840000000     0.965060000000     0.156100000000     1.2412     
Zr42     Zr     0.464810000000     0.465030000000     0.274200000000     1.26507    
Zr43     Zr     0.029190000000     0.715080000000     0.463880000000     1.30095    
Zr44     Zr     0.464020000000     0.715080000000     0.029500000000     1.30267    
Zr45     Zr     0.965630000000     0.715060000000     0.400780000000     1.28868    
Zr46     Zr     0.400470000000     0.715100000000     0.966400000000     1.27737    
Zr47     Zr     0.464810000000     0.656010000000     0.465150000000     1.26841    
Zr48     Zr     0.964840000000     0.774090000000     0.965120000000     1.23258    
Zr49     Zr     0.214800000000     0.529400000000     0.463900000000     1.29781    
Zr50     Zr     0.214810000000     0.964270000000     0.029530000000     1.28869    
Zr51     Zr     0.214790000000     0.465860000000     0.400810000000     1.2984     
Zr52     Zr     0.214810000000     0.900720000000     0.966440000000     1.27741    
Zr53     Zr     0.273890000000     0.965070000000     0.465160000000     1.25464    
Zr54     Zr     0.155780000000     0.465050000000     0.965190000000     1.24642    
Zr55     Zr     0.400470000000     0.963790000000     0.715190000000     1.28943    
Zr56     Zr     0.965630000000     0.529390000000     0.715170000000     1.28847    
Zr57     Zr     0.464030000000     0.900700000000     0.715150000000     1.29902    
Zr58     Zr     0.029180000000     0.466310000000     0.715210000000     1.30094    
Zr59     Zr     0.964840000000     0.965060000000     0.656090000000     1.24108    
Zr60     Zr     0.464810000000     0.465030000000     0.774200000000     1.26511    
Zr61     Zr     0.029190000000     0.715080000000     0.963880000000     1.28231    
Zr62     Zr     0.464020000000     0.715080000000     0.529500000000     1.29904    
Zr63     Zr     0.965630000000     0.715060000000     0.900780000000     1.28873    
Zr64     Zr     0.400470000000     0.715100000000     0.466400000000     1.29789    
Zr65     Zr     0.464810000000     0.656010000000     0.965150000000     1.24965    
Zr66     Zr     0.964840000000     0.774090000000     0.465120000000     1.25123    
Zr67     Zr     0.214800000000     0.529400000000     0.963900000000     1.27915    
Zr68     Zr     0.214810000000     0.964270000000     0.529530000000     1.28503    
Zr69     Zr     0.214790000000     0.465860000000     0.900810000000     1.29842    
Zr70     Zr     0.214810000000     0.900720000000     0.466440000000     1.29788    
Zr71     Zr     0.273890000000     0.965070000000     0.965160000000     1.23598    
Zr72     Zr     0.155780000000     0.465050000000     0.465190000000     1.26509    
Zr73     Zr     0.900470000000     0.463790000000     0.215190000000     1.29821    
Zr74     Zr     0.465630000000     0.029390000000     0.215170000000     1.30572    
Zr75     Zr     0.964030000000     0.400700000000     0.215150000000     1.28488    
Zr76     Zr     0.529180000000     0.966310000000     0.215200000000     1.28348    
Zr77     Zr     0.464840000000     0.465060000000     0.156100000000     1.26849    
Zr78     Zr     0.964810000000     0.965030000000     0.274200000000     1.24182    
Zr79     Zr     0.529190000000     0.215080000000     0.463880000000     1.29813    
Zr80     Zr     0.964020000000     0.215080000000     0.029500000000     1.28868    
Zr81     Zr     0.465630000000     0.215060000000     0.400780000000     1.29891    
Zr82     Zr     0.900470000000     0.215100000000     0.966400000000     1.27745    
Zr83     Zr     0.964810000000     0.156010000000     0.465150000000     1.25444    
Zr84     Zr     0.464840000000     0.274090000000     0.965120000000     1.24652    
Zr85     Zr     0.714800000000     0.029400000000     0.463900000000     1.30047    
Zr86     Zr     0.714810000000     0.464270000000     0.029530000000     1.3021     
Zr87     Zr     0.714790000000     0.965860000000     0.400810000000     1.2886     
Zr88     Zr     0.714810000000     0.400720000000     0.966440000000     1.27746    
Zr89     Zr     0.773890000000     0.465070000000     0.465160000000     1.2683     
Zr90     Zr     0.655780000000     0.965050000000     0.965190000000     1.23277    
Zr91     Zr     0.900470000000     0.463790000000     0.715190000000     1.29839    
Zr92     Zr     0.465630000000     0.029390000000     0.715170000000     1.3059     
Zr93     Zr     0.964030000000     0.400700000000     0.715150000000     1.285      
Zr94     Zr     0.529180000000     0.966310000000     0.715200000000     1.28361    
Zr95     Zr     0.464840000000     0.465060000000     0.656090000000     1.26839    
Zr96     Zr     0.964810000000     0.965030000000     0.774200000000     1.24185    
Zr97     Zr     0.529190000000     0.215080000000     0.963880000000     1.27945    
Zr98     Zr     0.964020000000     0.215080000000     0.529500000000     1.28508    
Zr99     Zr     0.465630000000     0.215060000000     0.900780000000     1.29894    
Zr100    Zr     0.900470000000     0.215100000000     0.466400000000     1.29787    
Zr101    Zr     0.964810000000     0.156010000000     0.965150000000     1.23573    
Zr102    Zr     0.464840000000     0.274090000000     0.465120000000     1.26526    
Zr103    Zr     0.714800000000     0.029400000000     0.963900000000     1.28188    
Zr104    Zr     0.714810000000     0.464270000000     0.529530000000     1.29845    
Zr105    Zr     0.714790000000     0.965860000000     0.900810000000     1.28858    
Zr106    Zr     0.714810000000     0.400720000000     0.466440000000     1.29795    
Zr107    Zr     0.773890000000     0.465070000000     0.965160000000     1.24957    
Zr108    Zr     0.655780000000     0.965050000000     0.465190000000     1.25143    
Zr109    Zr     0.900470000000     0.963790000000     0.215190000000     1.28926    
Zr110    Zr     0.465630000000     0.529390000000     0.215170000000     1.29863    
Zr111    Zr     0.964030000000     0.900700000000     0.215150000000     1.28504    
Zr112    Zr     0.529180000000     0.466310000000     0.215200000000     1.29814    
Zr113    Zr     0.464840000000     0.965060000000     0.156100000000     1.25518    
Zr114    Zr     0.964810000000     0.465030000000     0.274200000000     1.25099    
Zr115    Zr     0.529190000000     0.715080000000     0.463880000000     1.29819    
Zr116    Zr     0.964020000000     0.715080000000     0.029500000000     1.28876    
Zr117    Zr     0.465630000000     0.715060000000     0.400780000000     1.29899    
Zr118    Zr     0.900470000000     0.715100000000     0.966400000000     1.27752    
Zr119    Zr     0.964810000000     0.656010000000     0.465150000000     1.25434    
Zr120    Zr     0.464840000000     0.774090000000     0.965120000000     1.24657    
Zr121    Zr     0.714800000000     0.529400000000     0.463900000000     1.29789    
Zr122    Zr     0.714810000000     0.964270000000     0.029530000000     1.28873    
Zr123    Zr     0.714790000000     0.465860000000     0.400810000000     1.29851    
Zr124    Zr     0.714810000000     0.900720000000     0.966440000000     1.27749    
Zr125    Zr     0.773890000000     0.965070000000     0.465160000000     1.25474    
Zr126    Zr     0.655780000000     0.465050000000     0.965190000000     1.24626    
Zr127    Zr     0.900470000000     0.963790000000     0.715190000000     1.28943    
Zr128    Zr     0.465630000000     0.529390000000     0.715170000000     1.29881    
Zr129    Zr     0.964030000000     0.900700000000     0.715150000000     1.28516    
Zr130    Zr     0.529180000000     0.466310000000     0.715200000000     1.29828    
Zr131    Zr     0.464840000000     0.965060000000     0.656090000000     1.25507    
Zr132    Zr     0.964810000000     0.465030000000     0.774200000000     1.25102    
Zr133    Zr     0.529190000000     0.715080000000     0.963880000000     1.27952    
Zr134    Zr     0.964020000000     0.715080000000     0.529500000000     1.28516    
Zr135    Zr     0.465630000000     0.715060000000     0.900780000000     1.29906    
Zr136    Zr     0.900470000000     0.715100000000     0.466400000000     1.29794    
Zr137    Zr     0.964810000000     0.656010000000     0.965150000000     1.23561    
Zr138    Zr     0.464840000000     0.774090000000     0.465120000000     1.26531    
Zr139    Zr     0.714800000000     0.529400000000     0.963900000000     1.27922    
Zr140    Zr     0.714810000000     0.964270000000     0.529530000000     1.28507    
Zr141    Zr     0.714790000000     0.465860000000     0.900810000000     1.29853    
Zr142    Zr     0.714810000000     0.900720000000     0.466440000000     1.29797    
Zr143    Zr     0.773890000000     0.965070000000     0.965160000000     1.23609    
Zr144    Zr     0.655780000000     0.465050000000     0.465190000000     1.26495    


