data_structure

_audit_creation_method RASPA-1.0
_audit_creation_date 2023-6-4
_audit_author_name 'Poobodin Mano'

_cell_length_a    25.9911
_cell_length_b    28.2957
_cell_length_c    28.7042
_cell_angle_alpha 82.7398
_cell_angle_beta  96.3387
_cell_angle_gamma 119.441
_cell_volume      18208.1

_symmetry_cell_setting          triclinic
_symmetry_space_group_name_Hall 'P 1'
_symmetry_space_group_name_H-M  'P 1'
_symmetry_Int_Tables_number     1

_symmetry_equiv_pos_as_xyz 'x,y,z'

loop_
_atom_site_label
_atom_site_type_symbol
_atom_site_fract_x
_atom_site_fract_y
_atom_site_fract_z
_atom_site_charge
C1       C      0.174420000000     0.157760000000     0.973250000000     0.392651   
C2       C      0.915000000000     0.930650000000     0.836510000000     0.391803   
C3       C      0.059320000000     0.174980000000     0.941980000000     0.398809   
C4       C      0.081800000000     0.909370000000     0.909430000000     0.391631   
C5       C      0.964730000000     0.807620000000     0.029180000000     0.405344   
C6       C      0.928240000000     0.065160000000     0.078450000000     0.375482   
C7       C      0.814390000000     0.825170000000     0.996270000000     0.388012   
C8       C      0.086970000000     0.046210000000     0.143740000000     0.393907   
C9       C      0.045710000000     0.861590000000     0.421370000000     0.390644   
C10      C      0.799870000000     0.949250000000     0.443980000000     0.386964   
C11      C      0.051210000000     0.014330000000     0.327670000000     0.385155   
C12      C      0.830210000000     0.833600000000     0.561130000000     0.388154   
C13      C      0.940820000000     0.945990000000     0.648740000000     0.395372   
C14      C      0.180500000000     0.135300000000     0.425870000000     0.378279   
C15      C      0.942390000000     0.104760000000     0.535960000000     0.406205   
C16      C      0.199750000000     0.031680000000     0.537840000000     0.389034   
C17      C      0.027090000000     0.331630000000     0.952700000000     0.395874   
C18      C      0.840480000000     0.457400000000     0.066130000000     0.391199   
C19      C      0.849050000000     0.324040000000     0.891780000000     0.391163   
C20      C      0.008910000000     0.450690000000     0.145280000000     0.393133   
C21      C      0.137440000000     0.632380000000     0.058890000000     0.387464   
C22      C      0.965440000000     0.502170000000     0.808750000000     0.397291   
C23      C      0.976240000000     0.635020000000     0.000110000000     0.406683   
C24      C      0.138240000000     0.500830000000     0.879510000000     0.387253   
C25      C      0.950560000000     0.298540000000     0.536450000000     0.382953   
C26      C      0.845540000000     0.533860000000     0.468890000000     0.386662   
C27      C      0.856400000000     0.310590000000     0.456670000000     0.395295   
C28      C      0.931980000000     0.510260000000     0.628940000000     0.393976   
C29      C      0.129470000000     0.648770000000     0.552980000000     0.398348   
C30      C      0.021720000000     0.446530000000     0.336310000000     0.393577   
C31      C      0.028440000000     0.666290000000     0.430310000000     0.388472   
C32      C      0.152170000000     0.453760000000     0.474540000000     0.385958   
C33      C      0.294750000000     0.944280000000     0.945110000000     0.383259   
C34      C      0.553090000000     0.867200000000     0.929880000000     0.385289   
C35      C      0.323070000000     0.829910000000     0.059820000000     0.385724   
C36      C      0.553290000000     0.017730000000     0.834500000000     0.39611    
C37      C      0.666570000000     0.137840000000     0.924870000000     0.395985   
C38      C      0.441260000000     0.958340000000     0.152150000000     0.396375   
C39      C      0.698390000000     0.024530000000     0.042780000000     0.377336   
C40      C      0.434680000000     0.102230000000     0.046250000000     0.40184    
C41      C      0.515750000000     0.168480000000     0.465830000000     0.406106   
C42      C      0.306010000000     0.836120000000     0.492420000000     0.39058    
C43      C      0.402480000000     0.071660000000     0.574420000000     0.406064   
C44      C      0.411040000000     0.940590000000     0.339640000000     0.402135   
C45      C      0.570690000000     0.927300000000     0.405720000000     0.367851   
C46      C      0.574970000000     0.038240000000     0.651590000000     0.394048   
C47      C      0.452920000000     0.804130000000     0.525830000000     0.397424   
C48      C      0.661180000000     0.158420000000     0.498550000000     0.400111   
C49      C      0.477090000000     0.305860000000     0.021440000000     0.377913   
C50      C      0.332590000000     0.510290000000     0.957040000000     0.382463   
C51      C      0.373230000000     0.318180000000     0.910440000000     0.38676    
C52      C      0.435050000000     0.502510000000     0.114760000000     0.390103   
C53      C      0.618430000000     0.655500000000     0.042760000000     0.382553   
C54      C      0.568550000000     0.471720000000     0.826490000000     0.387987   
C55      C      0.534840000000     0.670770000000     0.921350000000     0.377048   
C56      C      0.663920000000     0.461840000000     0.979090000000     0.376533   
C57      C      0.572910000000     0.364950000000     0.444720000000     0.394578   
C58      C      0.349300000000     0.469900000000     0.548310000000     0.389529   
C59      C      0.370990000000     0.325150000000     0.394170000000     0.383204   
C60      C      0.537050000000     0.472160000000     0.638870000000     0.385573   
C61      C      0.647100000000     0.644160000000     0.556250000000     0.39222    
C62      C      0.471760000000     0.506130000000     0.300810000000     0.390421   
C63      C      0.485490000000     0.645090000000     0.492210000000     0.390635   
C64      C      0.656140000000     0.529990000000     0.372390000000     0.3764     
C65      C      0.564340000000     0.516860000000     0.712590000000    -0.00791327 
C66      C      0.531880000000     0.416250000000     0.714390000000     0.00356174 
C67      C      0.611030000000     0.521120000000     0.751330000000    -0.0153273  
C68      C      0.573420000000     0.422010000000     0.759460000000    -0.0602847  
C69      C      0.549570000000     0.369480000000     0.790980000000     0.315432   
C70      C      0.435550000000     0.555150000000     0.178820000000    -0.00940608 
C71      C      0.386270000000     0.454920000000     0.188300000000     0.00813803 
C72      C      0.474110000000     0.558140000000     0.224730000000    -0.0173039  
C73      C      0.428020000000     0.454090000000     0.230000000000    -0.0565897  
C74      C      0.392000000000     0.403900000000     0.262060000000     0.310454   
C75      C      0.471000000000     0.730140000000     0.566310000000    -0.0122899  
C76      C      0.409990000000     0.716740000000     0.491360000000     0.0105975  
C77      C      0.515510000000     0.722030000000     0.541370000000    -0.0151208  
C78      C      0.458950000000     0.719130000000     0.464620000000    -0.0583046  
C79      C      0.436400000000     0.696190000000     0.417260000000     0.316615   
C80      C      0.563730000000     0.258580000000     0.496440000000    -0.00863612 
C81      C      0.522850000000     0.245830000000     0.410850000000     0.0149352  
C82      C      0.617620000000     0.309800000000     0.479030000000    -0.00824427 
C83      C      0.576160000000     0.301180000000     0.396490000000    -0.0629872  
C84      C      0.625600000000     0.296680000000     0.377810000000     0.310278   
C85      C      0.625980000000     0.024380000000     0.726590000000    -0.00807312 
C86      C      0.597150000000     0.096240000000     0.716840000000     0.0061495  
C87      C      0.588640000000     0.996770000000     0.769450000000    -0.015951   
C88      C      0.555470000000     0.069440000000     0.757620000000    -0.0580845  
C89      C      0.557640000000     0.114250000000     0.783030000000     0.313357   
C90      C      0.412570000000     0.892350000000     0.274820000000    -0.0116256  
C91      C      0.382030000000     0.966000000000     0.260150000000     0.0102089  
C92      C      0.450480000000     0.920500000000     0.232350000000    -0.00605881 
C93      C      0.372220000000     0.950470000000     0.209090000000    -0.0596367  
C94      C      0.313830000000     0.899530000000     0.200980000000     0.31813    
C95      C      0.499180000000     0.781360000000     0.893640000000    -0.00570743 
C96      C      0.609710000000     0.827100000000     0.899190000000     0.00458653 
C97      C      0.499880000000     0.735160000000     0.925770000000    -0.0155916  
C98      C      0.596670000000     0.768370000000     0.887160000000    -0.0622823  
C99      C      0.589830000000     0.764010000000     0.834610000000     0.314765   
C100     C      0.453840000000     0.218160000000     0.993670000000    -0.012389   
C101     C      0.468040000000     0.229490000000     0.080670000000     0.00626823 
C102     C      0.401590000000     0.161180000000     0.003390000000    -0.0102705  
C103     C      0.422160000000     0.167610000000     0.089510000000    -0.0591043  
C104     C      0.437580000000     0.141980000000     0.134530000000     0.30705    
C105     C      0.777730000000     0.223630000000     0.435470000000    -0.0210127  
C106     C      0.801190000000     0.243970000000     0.519650000000     0.0114833  
C107     C      0.720560000000     0.226390000000     0.437820000000    -0.00319144 
C108     C      0.743610000000     0.246350000000     0.521850000000    -0.0618786  
C109     C      0.721970000000     0.232030000000     0.571250000000     0.316497   
C110     C      0.214620000000     0.799110000000     0.534850000000    -0.0027105  
C111     C      0.285500000000     0.762690000000     0.555840000000     0.0146192  
C112     C      0.172440000000     0.747480000000     0.564990000000    -0.0140182  
C113     C      0.236210000000     0.706100000000     0.547570000000    -0.0609334  
C114     C      0.237250000000     0.696420000000     0.496850000000     0.324117   
C115     C      0.820000000000     0.593010000000     0.409510000000    -0.00953641 
C116     C      0.758200000000     0.489000000000     0.415690000000     0.0229554  
C117     C      0.763740000000     0.594650000000     0.385660000000    -0.00615124 
C118     C      0.728640000000     0.498050000000     0.368680000000    -0.0666341  
C119     C      0.765100000000     0.512180000000     0.326370000000     0.320107   
C120     C      0.240530000000     0.423120000000     0.556230000000    -0.0119305  
C121     C      0.294110000000     0.517960000000     0.519350000000     0.00780339 
C122     C      0.203910000000     0.403270000000     0.509440000000    -0.0157469  
C123     C      0.262440000000     0.496950000000     0.471600000000    -0.0589247  
C124     C      0.261710000000     0.540400000000     0.435320000000     0.320215   
C125     C      0.936700000000     0.563380000000     0.692690000000    -0.00929987 
C126     C      0.873380000000     0.463880000000     0.697700000000     0.0101574  
C127     C      0.976920000000     0.558730000000     0.734410000000    -0.0157818  
C128     C      0.912750000000     0.454380000000     0.737260000000    -0.0564083  
C129     C      0.871680000000     0.406740000000     0.769240000000     0.309916   
C130     C      0.023920000000     0.395930000000     0.271890000000    -0.00616391 
C131     C      0.958520000000     0.436730000000     0.265820000000     0.0114041  
C132     C      0.039740000000     0.416230000000     0.219990000000    -0.0154886  
C133     C      0.977420000000     0.465330000000     0.217490000000    -0.0583688  
C134     C      0.922470000000     0.463020000000     0.190910000000     0.3123     
C135     C      0.710300000000     0.235800000000     0.903570000000    -0.00667695 
C136     C      0.767880000000     0.186020000000     0.894720000000     0.00858716 
C137     C      0.744950000000     0.277000000000     0.864120000000    -0.0112451  
C138     C      0.803120000000     0.232490000000     0.856750000000    -0.0564472  
C139     C      0.862360000000     0.237600000000     0.849650000000     0.310592   
C140     C      0.285910000000     0.739340000000     0.102910000000    -0.0118524  
C141     C      0.217780000000     0.779350000000     0.081530000000     0.00575378 
C142     C      0.242530000000     0.688980000000     0.078310000000    -0.00519625 
C143     C      0.168620000000     0.719300000000     0.095180000000    -0.0600217  
C144     C      0.160040000000     0.709210000000     0.147430000000     0.309879   
C145     C      0.703670000000     0.405100000000     0.025670000000    -0.0100289  
C146     C      0.765080000000     0.508760000000     0.017180000000     0.00527676 
C147     C      0.733010000000     0.407110000000     0.076010000000    -0.015461   
C148     C      0.783730000000     0.505900000000     0.069820000000    -0.0586922  
C149     C      0.836650000000     0.556830000000     0.086280000000     0.314406   
C150     C      0.197650000000     0.455280000000     0.883000000000    -0.0145383  
C151     C      0.245260000000     0.554480000000     0.867060000000     0.00850746 
C152     C      0.226120000000     0.461350000000     0.932970000000    -0.0154034  
C153     C      0.281770000000     0.563360000000     0.915050000000    -0.0667861  
C154     C      0.341250000000     0.611710000000     0.906080000000     0.319798   
C155     C      0.794500000000     0.744970000000     0.607600000000    -0.0112854  
C156     C      0.727980000000     0.786670000000     0.589630000000     0.00741898 
C157     C      0.750640000000     0.694480000000     0.583380000000    -0.00520621 
C158     C      0.677550000000     0.726280000000     0.599580000000    -0.0593562  
C159     C      0.667240000000     0.711640000000     0.651510000000     0.312571   
C160     C      0.230970000000     0.234910000000     0.408960000000    -0.00819254 
C161     C      0.284350000000     0.182770000000     0.398090000000     0.00486816 
C162     C      0.265870000000     0.276120000000     0.369200000000    -0.0146133  
C163     C      0.322430000000     0.230480000000     0.361250000000    -0.0567038  
C164     C      0.380670000000     0.233270000000     0.354720000000     0.300504   
C165     C      0.634690000000     0.882570000000     0.402700000000    -0.0117609  
C166     C      0.674530000000     0.974570000000     0.431920000000     0.0418711  
C167     C      0.702790000000     0.903990000000     0.396780000000    -0.0183137  
C168     C      0.714670000000     0.958130000000     0.464390000000    -0.0669749  
C169     C      0.758330000000     0.006190000000     0.491730000000     0.316642   
C170     C      0.303560000000     0.092700000000     0.517780000000    -0.0065403  
C171     C      0.273710000000     0.074740000000     0.602400000000     0.0106242  
C172     C      0.363930000000     0.130670000000     0.541710000000    -0.012936   
C173     C      0.333470000000     0.077820000000     0.620190000000    -0.0625966  
C174     C      0.359750000000     0.111250000000     0.661960000000     0.308759   
C175     C      0.989480000000     0.726640000000     0.400740000000    -0.00999479 
C176     C      0.092690000000     0.762330000000     0.437610000000     0.00456979 
C177     C      0.008590000000     0.782680000000     0.374270000000    -0.0116965  
C178     C      0.109940000000     0.819670000000     0.412410000000    -0.063832   
C179     C      0.156180000000     0.862330000000     0.443030000000     0.314872   
C180     C      0.915370000000     0.207700000000     0.584430000000    -0.0153307  
C181     C      0.906690000000     0.214880000000     0.496190000000     0.00579943 
C182     C      0.895550000000     0.146750000000     0.576270000000    -0.0133371  
C183     C      0.941060000000     0.185140000000     0.496060000000    -0.0495182  
C184     C      0.930330000000     0.163090000000     0.448230000000     0.305378   
C185     C      0.871940000000     0.936840000000     0.706580000000    -0.0117513  
C186     C      0.946980000000     0.903350000000     0.728040000000     0.0114223  
C187     C      0.883220000000     0.953400000000     0.757100000000    -0.00826605 
C188     C      0.910680000000     0.877530000000     0.772340000000    -0.0609749  
C189     C      0.852910000000     0.826440000000     0.763070000000     0.317224   
C190     C      0.133300000000     0.033660000000     0.221710000000    -0.00900924 
C191     C      0.091420000000     0.096320000000     0.210320000000     0.00851176 
C192     C      0.093520000000     0.000540000000     0.262330000000    -0.0139129  
C193     C      0.048450000000     0.063970000000     0.249910000000    -0.0606436  
C194     C      0.041600000000     0.104480000000     0.274890000000     0.312314   
C195     C      0.660150000000     0.752260000000     0.014510000000    -0.0181331  
C196     C      0.713160000000     0.723380000000     0.077670000000     0.0118154  
C197     C      0.708280000000     0.766210000000     0.979880000000    -0.0084438  
C198     C      0.763270000000     0.736940000000     0.045410000000    -0.0625752  
C199     C      0.820000000000     0.755480000000     0.076000000000     0.305171   
C200     C      0.273780000000     0.243710000000     0.886630000000    -0.00817989 
C201     C      0.324850000000     0.234280000000     0.962450000000     0.00532052 
C202     C      0.220780000000     0.234510000000     0.913310000000    -0.0142362  
C203     C      0.276500000000     0.233090000000     0.990150000000    -0.0585006  
C204     C      0.273620000000     0.204000000000     0.038700000000     0.307988   
C205     C      0.866760000000     0.109550000000     0.048770000000    -0.0122683  
C206     C      0.832090000000     0.030460000000     0.111250000000     0.00687659 
C207     C      0.803610000000     0.080340000000     0.024520000000    -0.0192921  
C208     C      0.776890000000     0.038050000000     0.107800000000    -0.0637791  
C209     C      0.730470000000     0.990530000000     0.136850000000     0.317301   
C210     C      0.189980000000     0.897670000000     0.966670000000    -0.00931796 
C211     C      0.219720000000     0.948010000000     0.885900000000     0.00346986 
C212     C      0.129920000000     0.857120000000     0.943700000000    -0.0177351  
C213     C      0.158160000000     0.906490000000     0.865950000000    -0.0529593  
C214     C      0.137590000000     0.928450000000     0.821190000000     0.306197   
C215     C      0.977920000000     0.732940000000     0.073590000000    -0.00613011 
C216     C      0.904040000000     0.714460000000     0.006460000000     0.0145322  
C217     C      0.011090000000     0.713550000000     0.046760000000    -0.0120807  
C218     C      0.939630000000     0.702240000000     0.975670000000    -0.0547847  
C219     C      0.897670000000     0.664930000000     0.939180000000     0.317419   
C220     C      0.078820000000     0.280480000000     0.983260000000    -0.011334   
C221     C      0.021910000000     0.264520000000     0.902410000000     0.00764102 
C222     C      0.122320000000     0.268600000000     0.962400000000    -0.0106723  
C223     C      0.068940000000     0.253560000000     0.885790000000    -0.063455   
C224     C      0.050240000000     0.221190000000     0.843190000000     0.318912   
H1       H      0.023990000000     0.984860000000     0.877290000000     0.197489   
H2       H      0.932250000000     0.066180000000     0.985480000000     0.196467   
H3       H      0.918010000000     0.870370000000     0.044000000000     0.216868   
H4       H      0.135590000000     0.046610000000     0.050140000000     0.202098   
H5       H      0.899130000000     0.093940000000     0.897780000000     0.145111   
H6       H      0.809330000000     0.984310000000     0.964920000000     0.210996   
H7       H      0.858390000000     0.905460000000     0.119080000000     0.14239    
H8       H      0.968540000000     0.895900000000     0.157330000000     0.194199   
H9       H      0.123540000000     0.908640000000     0.064610000000     0.141519   
H10      H      0.236790000000     0.058710000000     0.984950000000     0.213487   
H11      H      0.158420000000     0.072440000000     0.863200000000     0.141023   
H12      H      0.025350000000     0.090940000000     0.817600000000     0.193369   
H13      H      0.007870000000     0.863610000000     0.157010000000     0.206299   
H14      H      0.195530000000     0.006060000000     0.022150000000     0.20357    
H15      H      0.960920000000     0.091620000000     0.812300000000     0.212      
H16      H      0.779700000000     0.961870000000     0.017330000000     0.218455   
H17      H      0.858380000000     0.892780000000     0.462350000000     0.197361   
H18      H      0.056690000000     0.072080000000     0.397660000000     0.204802   
H19      H      0.013710000000     0.050570000000     0.581960000000     0.19492    
H20      H      0.073000000000     0.908900000000     0.519150000000     0.202867   
H21      H      0.956700000000     0.089680000000     0.369580000000     0.135659   
H22      H      0.055270000000     0.172780000000     0.407970000000     0.200585   
H23      H      0.153540000000     0.142120000000     0.552370000000     0.142273   
H24      H      0.117050000000     0.067950000000     0.639870000000     0.194045   
H25      H      0.078940000000     0.908030000000     0.648650000000     0.147361   
H26      H      0.962930000000     0.795250000000     0.570250000000     0.208435   
H27      H      0.863180000000     0.813890000000     0.418850000000     0.12749    
H28      H      0.893820000000     0.888970000000     0.343490000000     0.193551   
H29      H      0.119570000000     0.014500000000     0.670200000000     0.197749   
H30      H      0.997690000000     0.792740000000     0.525660000000     0.207998   
H31      H      0.855920000000     0.921720000000     0.323200000000     0.207223   
H32      H      0.077160000000     0.207170000000     0.456110000000     0.210453   
H33      H      0.923670000000     0.412230000000     0.073960000000     0.206362   
H34      H      0.891920000000     0.446260000000     0.885020000000     0.211006   
H35      H      0.064270000000     0.614130000000     0.978720000000     0.200127   
H36      H      0.095600000000     0.441490000000     0.965680000000     0.20282    
H37      H      0.770640000000     0.397020000000     0.924270000000     0.144011   
H38      H      0.845890000000     0.531310000000     0.897440000000     0.215293   
H39      H      0.074710000000     0.647390000000     0.882320000000     0.126821   
H40      H      0.187320000000     0.656070000000     0.919010000000     0.194181   
H41      H      0.218090000000     0.556870000000     0.024290000000     0.147016   
H42      H      0.137560000000     0.413720000000     0.055150000000     0.20253    
H43      H      0.913920000000     0.309840000000     0.070820000000     0.127649   
H44      H      0.809310000000     0.294100000000     0.026200000000     0.190826   
H45      H      0.234740000000     0.644790000000     0.956740000000     0.202044   
H46      H      0.111440000000     0.402170000000     0.108520000000     0.208146   
H47      H      0.757480000000     0.312760000000     0.010540000000     0.195512   
H48      H      0.882740000000     0.572900000000     0.851810000000     0.220353   
H49      H      0.879050000000     0.462240000000     0.549130000000     0.198971   
H50      H      0.935530000000     0.437170000000     0.381020000000     0.198211   
H51      H      0.093520000000     0.612060000000     0.472120000000     0.209305   
H52      H      0.054500000000     0.408840000000     0.547780000000     0.20895    
H53      H      0.822720000000     0.399840000000     0.365040000000     0.129497   
H54      H      0.009580000000     0.591180000000     0.304320000000     0.217486   
H55      H      0.152990000000     0.601160000000     0.401600000000     0.143142   
H56      H      0.237220000000     0.593570000000     0.526110000000     0.230987   
H57      H      0.124220000000     0.503200000000     0.622560000000     0.138854   
H58      H      0.024900000000     0.383710000000     0.648910000000     0.206029   
H59      H      0.832220000000     0.354020000000     0.581830000000     0.134761   
H60      H      0.750120000000     0.378260000000     0.485160000000     0.203371   
H61      H      0.220300000000     0.574410000000     0.582060000000     0.205519   
H62      H      0.021000000000     0.434750000000     0.669160000000     0.205828   
H63      H      0.747120000000     0.360590000000     0.431070000000     0.20748    
H64      H      0.941940000000     0.552660000000     0.324680000000     0.219931   
H65      H      0.486300000000     0.916320000000     0.903310000000     0.197326   
H66      H      0.441270000000     0.896140000000     0.087000000000     0.20241    
H67      H      0.635470000000     0.076660000000     0.021200000000     0.197876   
H68      H      0.418910000000     0.052150000000     0.959220000000     0.194426   
H69      H      0.465570000000     0.816350000000     0.083130000000     0.133427   
H70      H      0.577530000000     0.891270000000     0.115120000000     0.213721   
H71      H      0.591130000000     0.075380000000     0.134990000000     0.143364   
H72      H      0.631900000000     0.156470000000     0.065490000000     0.19222    
H73      H      0.526150000000     0.149050000000     0.902780000000     0.144855   
H74      H      0.422550000000     0.080640000000     0.866010000000     0.193177   
H75      H      0.352130000000     0.882720000000     0.869040000000     0.136471   
H76      H      0.365310000000     0.806250000000     0.921810000000     0.192174   
H77      H      0.624650000000     0.203440000000     0.027950000000     0.201757   
H78      H      0.400520000000     0.039310000000     0.822610000000     0.215195   
H79      H      0.364930000000     0.761570000000     0.966130000000     0.209612   
H80      H      0.568020000000     0.913650000000     0.163020000000     0.205762   
H81      H      0.360070000000     0.939480000000     0.426640000000     0.215856   
H82      H      0.453480000000     0.984180000000     0.610040000000     0.193043   
H83      H      0.557580000000     0.915450000000     0.499080000000     0.194812   
H84      H      0.566600000000     0.111410000000     0.449320000000     0.21069    
H85      H      0.332220000000     0.913210000000     0.621740000000     0.133416   
H86      H      0.419000000000     0.843780000000     0.639090000000     0.208373   
H87      H      0.620540000000     0.941320000000     0.621390000000     0.148564   
H88      H      0.653520000000     0.976130000000     0.540230000000     0.195669   
H89      H      0.664330000000     0.086920000000     0.386970000000     0.139772   
H90      H      0.539990000000     0.115990000000     0.344620000000     0.199539   
H91      H      0.363290000000     0.067830000000     0.421940000000     0.148884   
H92      H      0.266310000000     0.963740000000     0.501790000000     0.212372   
H93      H      0.693800000000     0.043410000000     0.543890000000     0.210974   
H94      H      0.473590000000     0.109030000000     0.325440000000     0.208087   
H95      H      0.257540000000     0.934890000000     0.557070000000     0.197584   
H96      H      0.461310000000     0.895190000000     0.672670000000     0.200404   
H97      H      0.381350000000     0.451910000000     0.026780000000     0.196884   
H98      H      0.463510000000     0.448800000000     0.859760000000     0.201382   
H99      H      0.595800000000     0.619070000000     0.963370000000     0.199884   
H100     H      0.570530000000     0.422820000000     0.035830000000     0.20402    
H101     H      0.342380000000     0.490070000000     0.858280000000     0.151202   
H102     H      0.469120000000     0.591840000000     0.818320000000     0.21576    
H103     H      0.664030000000     0.635480000000     0.887530000000     0.132077   
H104     H      0.737680000000     0.622800000000     0.989770000000     0.204397   
H105     H      0.656620000000     0.534350000000     0.109610000000     0.145116   
H106     H      0.531830000000     0.384520000000     0.130250000000     0.208407   
H107     H      0.339370000000     0.348010000000     0.055660000000     0.130146   
H108     H      0.267820000000     0.353410000000     0.956510000000     0.192456   
H109     H      0.741030000000     0.606890000000     0.047840000000     0.208448   
H110     H      0.523280000000     0.432810000000     0.150870000000     0.213444   
H111     H      0.260440000000     0.371710000000     0.899320000000     0.198533   
H112     H      0.484410000000     0.551580000000     0.791130000000     0.204481   
H113     H      0.443920000000     0.424070000000     0.570760000000     0.200749   
H114     H      0.405020000000     0.449380000000     0.381420000000     0.205835   
H115     H      0.570390000000     0.626990000000     0.470510000000     0.198224   
H116     H      0.619980000000     0.468540000000     0.457620000000     0.208193   
H117     H      0.274050000000     0.368990000000     0.436510000000     0.144993   
H118     H      0.379360000000     0.571570000000     0.352300000000     0.216496   
H119     H      0.569770000000     0.663100000000     0.376640000000     0.128447   
H120     H      0.682050000000     0.680260000000     0.411310000000     0.193501   
H121     H      0.741420000000     0.587820000000     0.502010000000     0.143336   
H122     H      0.630270000000     0.397790000000     0.588130000000     0.208426   
H123     H      0.465650000000     0.309210000000     0.537960000000     0.143623   
H124     H      0.357950000000     0.311730000000     0.543620000000     0.198833   
H125     H      0.735060000000     0.679290000000     0.449540000000     0.203969   
H126     H      0.667030000000     0.464270000000     0.570650000000     0.203509   
H127     H      0.294290000000     0.308880000000     0.521330000000     0.19986    
H128     H      0.346740000000     0.514350000000     0.387570000000     0.215943   
H129     H      0.650640000000     0.525980000000     0.735310000000     0.048979   
H130     H      0.583750000000     0.555330000000     0.689230000000     0.0547225  
H131     H      0.616020000000     0.429080000000     0.747110000000     0.0644093  
H132     H      0.626780000000     0.558730000000     0.769460000000     0.0577629  
H133     H      0.524690000000     0.512680000000     0.727910000000     0.0396941  
H134     H      0.485480000000     0.398550000000     0.724490000000     0.048495   
H135     H      0.533340000000     0.387060000000     0.692690000000     0.0476649  
H136     H      0.475410000000     0.307360000000     0.819560000000     0.182651   
H137     H      0.520040000000     0.572340000000     0.215100000000     0.0440973  
H138     H      0.460700000000     0.591620000000     0.154470000000     0.0440898  
H139     H      0.464760000000     0.450780000000     0.216830000000     0.0669867  
H140     H      0.475510000000     0.589780000000     0.245010000000     0.0504164  
H141     H      0.395390000000     0.556220000000     0.187190000000     0.0416399  
H142     H      0.347190000000     0.454740000000     0.201050000000     0.0468072  
H143     H      0.368310000000     0.417380000000     0.169490000000     0.0473776  
H144     H      0.324530000000     0.369880000000     0.306020000000     0.181734   
H145     H      0.553490000000     0.762690000000     0.531830000000     0.0394956  
H146     H      0.494550000000     0.758120000000     0.594560000000     0.0475983  
H147     H      0.491880000000     0.762860000000     0.456920000000     0.0687896  
H148     H      0.533750000000     0.700390000000     0.566890000000     0.05039    
H149     H      0.438590000000     0.690290000000     0.583280000000     0.0425956  
H150     H      0.379930000000     0.673980000000     0.504710000000     0.0571315  
H151     H      0.382010000000     0.730390000000     0.467860000000     0.0670917  
H152     H      0.365550000000     0.640400000000     0.380820000000     0.184858   
H153     H      0.639410000000     0.338450000000     0.507060000000     0.0387181  
H154     H      0.531820000000     0.268660000000     0.509400000000     0.0461849  
H155     H      0.560710000000     0.320900000000     0.366480000000     0.0791237  
H156     H      0.650740000000     0.299090000000     0.469620000000     0.0443118  
H157     H      0.579580000000     0.240080000000     0.527110000000     0.0623653  
H158     H      0.512060000000     0.218320000000     0.382690000000     0.0462396  
H159     H      0.484270000000     0.252010000000     0.413240000000     0.0476164  
H160     H      0.702680000000     0.340230000000     0.344840000000     0.173836   
H161     H      0.547580000000     0.959930000000     0.758610000000     0.0376413  
H162     H      0.629440000000     0.993570000000     0.708600000000     0.0408085  
H163     H      0.509640000000     0.044700000000     0.742540000000     0.0652142  
H164     H      0.614200000000     0.983000000000     0.795900000000     0.0483789  
H165     H      0.671760000000     0.053820000000     0.738690000000     0.0433832  
H166     H      0.642300000000     0.125870000000     0.730160000000     0.0487487  
H167     H      0.581060000000     0.119810000000     0.691390000000     0.0508095  
H168     H      0.511870000000     0.152840000000     0.793100000000     0.180846   
H169     H      0.494550000000     0.953230000000     0.244270000000     0.0461618  
H170     H      0.437950000000     0.878260000000     0.301150000000     0.0481705  
H171     H      0.370330000000     0.984670000000     0.186460000000     0.0674463  
H172     H      0.456890000000     0.889730000000     0.216880000000     0.0378165  
H173     H      0.370990000000     0.855610000000     0.264970000000     0.0567781  
H174     H      0.341740000000     0.964620000000     0.271570000000     0.0479534  
H175     H      0.418410000000     0.008870000000     0.260730000000     0.0427072  
H176     H      0.275550000000     0.822570000000     0.180780000000     0.188354   
H177     H      0.510410000000     0.745910000000     0.962900000000     0.0585272  
H178     H      0.459060000000     0.784450000000     0.898330000000     0.0447063  
H179     H      0.636070000000     0.763960000000     0.899720000000     0.0545155  
H180     H      0.455650000000     0.699620000000     0.924030000000     0.0618487  
H181     H      0.495390000000     0.773760000000     0.856100000000     0.0505115  
H182     H      0.636920000000     0.859350000000     0.872350000000     0.0478309  
H183     H      0.636450000000     0.835980000000     0.933150000000     0.0358864  
H184     H      0.533990000000     0.722590000000     0.781080000000     0.179469   
H185     H      0.360780000000     0.163280000000     0.005560000000     0.0467981  
H186     H      0.443490000000     0.235230000000     0.959120000000     0.0501987  
H187     H      0.379340000000     0.165860000000     0.094350000000     0.0705731  
H188     H      0.393850000000     0.135830000000     0.973950000000     0.0277826  
H189     H      0.494850000000     0.216010000000     0.990610000000     0.0581415  
H190     H      0.513740000000     0.235430000000     0.087070000000     0.046331   
H191     H      0.462040000000     0.252230000000     0.106590000000     0.0445097  
H192     H      0.403490000000     0.092660000000     0.193600000000     0.180514   
H193     H      0.729120000000     0.268590000000     0.426850000000     0.0393815  
H194     H      0.794430000000     0.237520000000     0.399460000000     0.0389667  
H195     H      0.752310000000     0.288680000000     0.511640000000     0.0643687  
H196     H      0.685970000000     0.199870000000     0.412310000000     0.0461643  
H197     H      0.769040000000     0.180980000000     0.443390000000     0.0653497  
H198     H      0.793570000000     0.202260000000     0.531940000000     0.0476431  
H199     H      0.835230000000     0.272190000000     0.544060000000     0.0509681  
H200     H      0.714180000000     0.183290000000     0.631480000000     0.188671   
H201     H      0.184010000000     0.754750000000     0.602810000000     0.0387203  
H202     H      0.224820000000     0.835740000000     0.552440000000     0.0374096  
H203     H      0.245650000000     0.677100000000     0.571980000000     0.0575877  
H204     H      0.126470000000     0.740530000000     0.557440000000     0.0463133  
H205     H      0.191160000000     0.800020000000     0.500660000000     0.052822   
H206     H      0.328870000000     0.767250000000     0.548330000000     0.0466781  
H207     H      0.288790000000     0.770390000000     0.593400000000     0.0352861  
H208     H      0.201770000000     0.699490000000     0.430540000000     0.181018   
H209     H      0.749500000000     0.612600000000     0.410230000000     0.0315574  
H210     H      0.841660000000     0.625120000000     0.434680000000     0.0390191  
H211     H      0.688310000000     0.458560000000     0.362390000000     0.078101   
H212     H      0.776310000000     0.623100000000     0.353350000000     0.0398677  
H213     H      0.852230000000     0.603740000000     0.382400000000     0.0498445  
H214     H      0.774300000000     0.460680000000     0.410190000000     0.036523   
H215     H      0.724050000000     0.468470000000     0.442280000000     0.036941   
H216     H      0.761550000000     0.522210000000     0.254980000000     0.189375   
H217     H      0.224150000000     0.385280000000     0.490620000000     0.0428225  
H218     H      0.246550000000     0.389750000000     0.576350000000     0.0391909  
H219     H      0.289190000000     0.482440000000     0.456560000000     0.06436    
H220     H      0.158600000000     0.370240000000     0.517470000000     0.0386305  
H221     H      0.214750000000     0.432740000000     0.578200000000     0.0386282  
H222     H      0.268150000000     0.530270000000     0.537890000000     0.0447734  
H223     H      0.338340000000     0.554310000000     0.514020000000     0.050845   
H224     H      0.266120000000     0.614550000000     0.425830000000     0.195467   
H225     H      0.018330000000     0.564910000000     0.720660000000     0.0393692  
H226     H      0.962720000000     0.600040000000     0.668790000000     0.0419335  
H227     H      0.943010000000     0.443810000000     0.722020000000     0.0677613  
H228     H      0.989340000000     0.592670000000     0.756600000000     0.0490335  
H229     H      0.901330000000     0.568620000000     0.705940000000     0.0426925  
H230     H      0.838870000000     0.469160000000     0.712600000000     0.0467704  
H231     H      0.849140000000     0.427930000000     0.676560000000     0.0446264  
H232     H      0.807640000000     0.382900000000     0.815180000000     0.179055   
H233     H      0.087110000000     0.448070000000     0.219860000000     0.0449633  
H234     H      0.062750000000     0.395690000000     0.292340000000     0.0426354  
H235     H      0.011240000000     0.508570000000     0.221740000000     0.0747065  
H236     H      0.035290000000     0.381450000000     0.202420000000     0.0451656  
H237     H      0.986520000000     0.353500000000     0.273730000000     0.0427907  
H238     H      0.919620000000     0.395330000000     0.262940000000     0.0427644  
H239     H      0.943600000000     0.459870000000     0.284320000000     0.037287   
H240     H      0.842170000000     0.412220000000     0.160940000000     0.185325   
H241     H      0.721830000000     0.262670000000     0.829570000000     0.0535096  
H242     H      0.664230000000     0.229160000000     0.897820000000     0.0497716  
H243     H      0.777500000000     0.219710000000     0.822640000000     0.069652   
H244     H      0.745630000000     0.316120000000     0.867010000000     0.0336247  
H245     H      0.728450000000     0.253070000000     0.938070000000     0.0425795  
H246     H      0.795620000000     0.192380000000     0.928180000000     0.0416178  
H247     H      0.758500000000     0.146590000000     0.882560000000     0.0550546  
H248     H      0.906530000000     0.194460000000     0.856560000000     0.193453   
H249     H      0.255500000000     0.695170000000     0.041410000000     0.0425944  
H250     H      0.331660000000     0.746590000000     0.100420000000     0.0399458  
H251     H      0.126530000000     0.715200000000     0.077660000000     0.0561637  
H252     H      0.246200000000     0.653440000000     0.096240000000     0.0404235  
H253     H      0.278220000000     0.732800000000     0.141050000000     0.0522467  
H254     H      0.218450000000     0.808220000000     0.104800000000     0.0502136  
H255     H      0.205680000000     0.791310000000     0.045300000000     0.0354756  
H256     H      0.135300000000     0.732610000000     0.201170000000     0.18779    
H257     H      0.703340000000     0.406470000000     0.101530000000     0.0407133  
H258     H      0.656510000000     0.373050000000     0.027330000000     0.0374638  
H259     H      0.746640000000     0.500650000000     0.089860000000     0.0628698  
H260     H      0.737250000000     0.369850000000     0.086080000000     0.0396777  
H261     H      0.724530000000     0.392240000000     0.002030000000     0.0423745  
H262     H      0.799930000000     0.512270000000     0.995540000000     0.0575571  
H263     H      0.761460000000     0.546040000000     0.008000000000     0.0493045  
H264     H      0.880720000000     0.596180000000     0.144340000000     0.189541   
H265     H      0.195790000000     0.461610000000     0.957050000000     0.0351828  
H266     H      0.155250000000     0.416330000000     0.881640000000     0.041011   
H267     H      0.259710000000     0.573600000000     0.940000000000     0.0591977  
H268     H      0.229130000000     0.423950000000     0.944690000000     0.0387164  
H269     H      0.227270000000     0.453820000000     0.858710000000     0.0347188  
H270     H      0.271030000000     0.553160000000     0.839170000000     0.0411542  
H271     H      0.237120000000     0.589480000000     0.855760000000     0.041086   
H272     H      0.415010000000     0.638740000000     0.869430000000     0.18303    
H273     H      0.766110000000     0.698910000000     0.547630000000     0.0442244  
H274     H      0.840210000000     0.752040000000     0.605180000000     0.0439621  
H275     H      0.636070000000     0.724050000000     0.582260000000     0.0581027  
H276     H      0.750970000000     0.658260000000     0.603310000000     0.0418312  
H277     H      0.786860000000     0.738930000000     0.645740000000     0.061586   
H278     H      0.731460000000     0.812720000000     0.617050000000     0.0525724  
H279     H      0.715490000000     0.803270000000     0.555700000000     0.0394428  
H280     H      0.641180000000     0.730180000000     0.707570000000     0.189992   
H281     H      0.242180000000     0.261760000000     0.334820000000     0.0461169  
H282     H      0.185900000000     0.230760000000     0.404830000000     0.0425163  
H283     H      0.297730000000     0.218990000000     0.326630000000     0.0674882  
H284     H      0.267010000000     0.315520000000     0.371730000000     0.0343366  
H285     H      0.251260000000     0.251000000000     0.443570000000     0.0413933  
H286     H      0.311330000000     0.187750000000     0.431770000000     0.038942   
H287     H      0.274010000000     0.143370000000     0.385290000000     0.0553345  
H288     H      0.417710000000     0.184760000000     0.353040000000     0.181039   
H289     H      0.709620000000     0.868290000000     0.395920000000     0.0345851  
H290     H      0.619170000000     0.849960000000     0.432030000000     0.0405601  
H291     H      0.687290000000     0.924390000000     0.490300000000     0.0587305  
H292     H      0.715250000000     0.928680000000     0.362500000000     0.0486683  
H293     H      0.609120000000     0.864740000000     0.369900000000     0.0414732  
H294     H      0.699440000000     0.003740000000     0.402360000000     0.0506503  
H295     H      0.659000000000     0.994130000000     0.452840000000    -0.0349665  
H296     H      0.795140000000     0.027740000000     0.557150000000     0.185007   
H297     H      0.399280000000     0.146950000000     0.516170000000     0.0417747  
H298     H      0.308300000000     0.064210000000     0.497570000000     0.0432164  
H299     H      0.323810000000     0.035330000000     0.632310000000     0.0590366  
H300     H      0.362800000000     0.166270000000     0.553130000000     0.0484101  
H301     H      0.289500000000     0.117970000000     0.492700000000     0.0388819  
H302     H      0.274890000000     0.114170000000     0.605110000000     0.0401641  
H303     H      0.240040000000     0.043740000000     0.626480000000     0.0394535  
H304     H      0.375270000000     0.106750000000     0.732880000000     0.185227   
H305     H      0.025000000000     0.783500000000     0.339830000000     0.0424499  
H306     H      0.957340000000     0.694940000000     0.377500000000     0.037366   
H307     H      0.129450000000     0.822990000000     0.378710000000     0.0684401  
H308     H      0.969590000000     0.789250000000     0.366280000000     0.0390001  
H309     H      0.966750000000     0.723410000000     0.432610000000     0.0463125  
H310     H      0.082850000000     0.760980000000     0.474700000000     0.0483249  
H311     H      0.131140000000     0.755120000000     0.437970000000     0.0441959  
H312     H      0.169640000000     0.892220000000     0.506910000000     0.173034   
H313     H      0.905810000000     0.126820000000     0.609140000000     0.034247   
H314     H      0.957850000000     0.224290000000     0.606010000000     0.039461   
H315     H      0.989070000000     0.214860000000     0.500730000000     0.0668968  
H316     H      0.846820000000     0.124770000000     0.569050000000     0.0411828  
H317     H      0.881710000000     0.208700000000     0.604410000000     0.0458161  
H318     H      0.858600000000     0.185130000000     0.494920000000     0.051662   
H319     H      0.914410000000     0.242720000000     0.463750000000     0.0616643  
H320     H      0.955370000000     0.184140000000     0.380830000000     0.179154   
H321     H      0.919470000000     0.996370000000     0.756920000000     0.0413477  
H322     H      0.867330000000     0.969300000000     0.683380000000     0.0445375  
H323     H      0.937840000000     0.865060000000     0.798240000000     0.0698647  
H324     H      0.842630000000     0.951520000000     0.768380000000     0.047765   
H325     H      0.829540000000     0.898380000000     0.703010000000     0.057239   
H326     H      0.951030000000     0.871700000000     0.711800000000     0.0505185  
H327     H      0.992440000000     0.934520000000     0.739090000000     0.0390691  
H328     H      0.764870000000     0.786470000000     0.773680000000     0.192868   
H329     H      0.055940000000     0.962730000000     0.249080000000     0.0415837  
H330     H      0.143760000000     0.006970000000     0.203880000000     0.0490404  
H331     H      0.004670000000     0.035750000000     0.233440000000     0.0691102  
H332     H      0.119830000000     0.988270000000     0.289350000000     0.0500121  
H333     H      0.176120000000     0.065730000000     0.236290000000     0.0480842  
H334     H      0.133330000000     0.129720000000     0.224810000000     0.0501441  
H335     H      0.071130000000     0.115700000000     0.184080000000     0.0490082  
H336     H      0.987130000000     0.135540000000     0.280910000000     0.182061   
H337     H      0.692900000000     0.731580000000     0.957850000000     0.033009   
H338     H      0.616790000000     0.740340000000     0.994970000000     0.0468706  
H339     H      0.753650000000     0.699020000000     0.030690000000     0.0659196  
H340     H      0.713880000000     0.802450000000     0.956060000000     0.0346055  
H341     H      0.671690000000     0.789230000000     0.032290000000     0.0521369  
H342     H      0.724490000000     0.759430000000     0.096830000000     0.0538053  
H343     H      0.708190000000     0.689900000000     0.104950000000     0.0388121  
H344     H      0.876780000000     0.812520000000     0.119710000000     0.167786   
H345     H      0.223160000000     0.274180000000     0.915560000000     0.0424949  
H346     H      0.278160000000     0.271010000000     0.854070000000     0.0429362  
H347     H      0.288730000000     0.275990000000     0.994510000000     0.0519623  
H348     H      0.179120000000     0.210370000000     0.892240000000     0.0554514  
H349     H      0.264490000000     0.203960000000     0.875340000000     0.0446317  
H350     H      0.312250000000     0.192040000000     0.955740000000     0.0418651  
H351     H      0.367280000000     0.252080000000     0.983450000000     0.0463628  
H352     H      0.266000000000     0.134270000000     0.074370000000     0.182824   
H353     H      0.793160000000     0.112400000000     0.007400000000     0.0385826  
H354     H      0.870410000000     0.141890000000     0.069370000000     0.0445312  
H355     H      0.788800000000     0.076180000000     0.123860000000     0.0686526  
H356     H      0.803610000000     0.057270000000     0.996160000000     0.0447163  
H357     H      0.899410000000     0.129750000000     0.021060000000     0.0358199  
H358     H      0.818040000000     0.989110000000     0.101030000000     0.0490153  
H359     H      0.850330000000     0.032990000000     0.148370000000     0.0441424  
H360     H      0.684360000000     0.969970000000     0.195530000000     0.180214   
H361     H      0.133420000000     0.822590000000     0.932570000000     0.0430906  
H362     H      0.203350000000     0.874130000000     0.994580000000     0.0418936  
H363     H      0.162790000000     0.871960000000     0.856100000000     0.0602572  
H364     H      0.095350000000     0.839640000000     0.969980000000     0.0409012  
H365     H      0.184280000000     0.927780000000     0.983700000000     0.0350856  
H366     H      0.220010000000     0.986420000000     0.891050000000     0.0596753  
H367     H      0.252390000000     0.957760000000     0.859360000000     0.0466587  
H368     H      0.149060000000     0.997150000000     0.781140000000     0.170971   
H369     H      0.050620000000     0.749710000000     0.031960000000     0.0351585  
H370     H      0.009610000000     0.764290000000     0.097230000000     0.0438644  
H371     H      0.971640000000     0.741140000000     0.956930000000     0.0729276  
H372     H      0.027350000000     0.690870000000     0.072980000000     0.0534781  
H373     H      0.945690000000     0.698060000000     0.096040000000     0.0560375  
H374     H      0.872610000000     0.676770000000     0.026600000000     0.0657808  
H375     H      0.875760000000     0.729340000000     0.984830000000     0.0515279  
H376     H      0.820450000000     0.595180000000     0.929460000000     0.178258   
H377     H      0.157630000000     0.307080000000     0.945810000000     0.0280621  
H378     H      0.105340000000     0.314360000000     0.006230000000     0.0378902  
H379     H      0.106400000000     0.293870000000     0.874240000000     0.0558954  
H380     H      0.145190000000     0.253500000000     0.990350000000     0.0482558  
H381     H      0.048040000000     0.244380000000     0.005480000000     0.0535868  
H382     H      0.982220000000     0.225110000000     0.911550000000     0.0436979  
H383     H      0.009190000000     0.286850000000     0.872860000000     0.0596779  
H384     H      0.080800000000     0.195130000000     0.795410000000     0.174321   
N1       N      0.586080000000     0.470720000000     0.783060000000    -0.151103   
N2       N      0.547580000000     0.469120000000     0.686770000000    -0.165608   
N3       N      0.453620000000     0.505350000000     0.253870000000    -0.150029   
N4       N      0.417470000000     0.504520000000     0.157390000000    -0.167667   
N5       N      0.488050000000     0.693720000000     0.497610000000    -0.154907   
N6       N      0.439370000000     0.750580000000     0.531330000000    -0.167184   
N7       N      0.597040000000     0.333290000000     0.437810000000    -0.155933   
N8       N      0.534450000000     0.222700000000     0.457420000000    -0.167224   
N9       N      0.571880000000     0.032670000000     0.789620000000    -0.151682   
N10      N      0.600700000000     0.053760000000     0.695240000000    -0.168486   
N11      N      0.422370000000     0.944400000000     0.196830000000    -0.152087   
N12      N      0.398720000000     0.930800000000     0.293310000000    -0.166232   
N13      N      0.544190000000     0.723160000000     0.910910000000    -0.14928    
N14      N      0.555270000000     0.830270000000     0.904160000000    -0.165468   
N15      N      0.412840000000     0.136770000000     0.048510000000    -0.155012   
N16      N      0.462900000000     0.252080000000     0.032010000000    -0.161983   
N17      N      0.701080000000     0.211200000000     0.486670000000    -0.156493   
N18      N      0.820860000000     0.257520000000     0.470710000000    -0.16985    
N19      N      0.177390000000     0.699600000000     0.556460000000    -0.153687   
N20      N      0.270060000000     0.800070000000     0.526120000000    -0.166834   
N21      N      0.714070000000     0.540920000000     0.373150000000    -0.153418   
N22      N      0.807390000000     0.539660000000     0.434040000000    -0.164406   
N23      N      0.202910000000     0.449400000000     0.479730000000    -0.152857   
N24      N      0.298160000000     0.472780000000     0.547900000000    -0.168333   
N25      N      0.949020000000     0.504830000000     0.761990000000    -0.153682   
N26      N      0.909970000000     0.513390000000     0.668630000000    -0.170168   
N27      N      0.004020000000     0.439760000000     0.193100000000    -0.150003   
N28      N      0.007100000000     0.431090000000     0.291650000000    -0.167799   
N29      N      0.804750000000     0.283370000000     0.866510000000    -0.148237   
N30      N      0.711790000000     0.184040000000     0.904030000000    -0.162843   
N31      N      0.180880000000     0.678430000000     0.078480000000    -0.15063    
N32      N      0.277580000000     0.785280000000     0.081830000000    -0.16345    
N33      N      0.790920000000     0.457180000000     0.079180000000    -0.151254   
N34      N      0.709030000000     0.458540000000     0.006630000000    -0.168612   
N35      N      0.283660000000     0.512990000000     0.935380000000    -0.153524   
N36      N      0.189480000000     0.502830000000     0.869490000000    -0.169945   
N37      N      0.689880000000     0.687130000000     0.579740000000    -0.151547   
N38      N      0.786290000000     0.790720000000     0.585990000000    -0.16219    
N39      N      0.325780000000     0.282410000000     0.370790000000    -0.147473   
N40      N      0.228580000000     0.181730000000     0.407260000000    -0.161083   
N41      N      0.741860000000     0.937910000000     0.435050000000    -0.150328   
N42      N      0.623820000000     0.926760000000     0.412930000000    -0.179381   
N43      N      0.376080000000     0.100400000000     0.582920000000    -0.15134    
N44      N      0.258230000000     0.061340000000     0.552590000000    -0.16579    
N45      N      0.056320000000     0.825670000000     0.401470000000    -0.152649   
N46      N      0.040700000000     0.718140000000     0.414680000000    -0.163226   
N47      N      0.924230000000     0.142590000000     0.536100000000    -0.154565   
N48      N      0.923890000000     0.242540000000     0.539880000000    -0.163115   
N49      N      0.900200000000     0.918510000000     0.790560000000    -0.149823   
N50      N      0.920890000000     0.929880000000     0.693260000000    -0.166906   
N51      N      0.069520000000     0.030810000000     0.282540000000    -0.149928   
N52      N      0.105250000000     0.059760000000     0.189090000000    -0.165122   
N53      N      0.765140000000     0.776030000000     0.004790000000    -0.152559   
N54      N      0.657430000000     0.708810000000     0.049810000000    -0.164493   
N55      N      0.220080000000     0.208500000000     0.961570000000    -0.155351   
N56      N      0.328910000000     0.265370000000     0.916720000000    -0.166723   
N57      N      0.757240000000     0.043520000000     0.057580000000    -0.151651   
N58      N      0.878920000000     0.070720000000     0.080650000000    -0.171065   
N59      N      0.114570000000     0.885220000000     0.902550000000    -0.151937   
N60      N      0.236020000000     0.926910000000     0.931760000000    -0.165267   
N61      N      0.973660000000     0.680550000000     0.007460000000    -0.149432   
N62      N      0.946100000000     0.753520000000     0.039450000000    -0.162104   
N63      N      0.089070000000     0.229320000000     0.927040000000    -0.154776   
N64      N      0.044250000000     0.294930000000     0.945320000000    -0.169084   
O1       O      0.154920000000     0.123210000000     0.942230000000    -0.358959   
O2       O      0.149580000000     0.147710000000     0.012750000000    -0.346158   
O3       O      0.924230000000     0.977580000000     0.846300000000    -0.373238   
O4       O      0.922930000000     0.896720000000     0.866780000000    -0.375911   
O5       O      0.030100000000     0.139240000000     0.911640000000    -0.352095   
O6       O      0.063980000000     0.162490000000     0.986200000000    -0.371543   
O7       O      0.105710000000     0.961100000000     0.901500000000    -0.372636   
O8       O      0.031560000000     0.880460000000     0.928550000000    -0.34649    
O9       O      0.180260000000     0.064270000000     0.890660000000    -0.328677   
O10      O      0.198340000000     0.030930000000     0.994990000000    -0.537475   
O11      O      0.989270000000     0.083390000000     0.830950000000    -0.51462    
O12      O      0.882160000000     0.053990000000     0.898030000000    -0.363239   
O13      O      0.059660000000     0.074520000000     0.951400000000    -0.483242   
O14      O      0.017530000000     0.987840000000     0.909010000000    -0.628938   
O15      O      0.996800000000     0.842020000000     0.060050000000    -0.374405   
O16      O      0.946810000000     0.820620000000     0.988940000000    -0.377916   
O17      O      0.923650000000     0.018270000000     0.088810000000    -0.369801   
O18      O      0.974540000000     0.102370000000     0.058070000000    -0.359398   
O19      O      0.820160000000     0.863890000000     0.018680000000    -0.363618   
O20      O      0.853420000000     0.829500000000     0.968820000000    -0.347223   
O21      O      0.079230000000     0.999960000000     0.133520000000    -0.368053   
O22      O      0.077090000000     0.079620000000     0.114060000000    -0.36721    
O23      O      0.995910000000     0.889630000000     0.142330000000    -0.524601   
O24      O      0.125840000000     0.933530000000     0.087090000000    -0.353653   
O25      O      0.830860000000     0.907810000000     0.093330000000    -0.32311    
O26      O      0.812530000000     0.973250000000     0.997870000000    -0.542844   
O27      O      0.942140000000     0.905800000000     0.028740000000    -0.643606   
O28      O      0.986570000000     0.992330000000     0.069660000000    -0.475954   
O29      O      0.050780000000     0.937710000000     0.990160000000    -0.497191   
O30      O      0.951050000000     0.043820000000     0.987380000000    -0.623769   
O31      O      0.097920000000     0.028780000000     0.032710000000    -0.623849   
O32      O      0.904690000000     0.952440000000     0.947280000000    -0.497365   
O33      O      0.993260000000     0.843370000000     0.434930000000    -0.376172   
O34      O      0.088110000000     0.911020000000     0.425990000000    -0.358367   
O35      O      0.830970000000     0.953460000000     0.409780000000    -0.359327   
O36      O      0.820960000000     0.956650000000     0.486780000000    -0.357243   
O37      O      0.001300000000     0.010170000000     0.336370000000    -0.362769   
O38      O      0.086060000000     0.006010000000     0.359300000000    -0.358595   
O39      O      0.868120000000     0.824780000000     0.543520000000    -0.363694   
O40      O      0.832170000000     0.880420000000     0.557090000000    -0.353302   
O41      O      0.868490000000     0.796190000000     0.449640000000    -0.349229   
O42      O      0.975070000000     0.806440000000     0.538280000000    -0.531216   
O43      O      0.885180000000     0.918260000000     0.345050000000    -0.527326   
O44      O      0.922150000000     0.055590000000     0.359610000000    -0.324891   
O45      O      0.989400000000     0.933630000000     0.424780000000    -0.49055    
O46      O      0.899220000000     0.919450000000     0.468410000000    -0.633275   
O47      O      0.989190000000     0.946700000000     0.640770000000    -0.371916   
O48      O      0.909780000000     0.958780000000     0.616940000000    -0.372045   
O49      O      0.143920000000     0.142500000000     0.447010000000    -0.376437   
O50      O      0.172830000000     0.087140000000     0.421210000000    -0.345098   
O51      O      0.990140000000     0.121760000000     0.515250000000    -0.384899   
O52      O      0.907980000000     0.053990000000     0.548990000000    -0.35916    
O53      O      0.161690000000     0.017670000000     0.568880000000    -0.375038   
O54      O      0.185270000000     0.023280000000     0.493670000000    -0.356925   
O55      O      0.107870000000     0.030280000000     0.642030000000    -0.525946   
O56      O      0.072580000000     0.901910000000     0.614800000000    -0.359868   
O57      O      0.118910000000     0.148150000000     0.550620000000    -0.361324   
O58      O      0.063150000000     0.173590000000     0.441640000000    -0.516305   
O59      O      0.011300000000     0.031320000000     0.555590000000    -0.631393   
O60      O      0.098940000000     0.040500000000     0.511910000000    -0.502009   
O61      O      0.957810000000     0.917300000000     0.554760000000    -0.495341   
O62      O      0.038990000000     0.045030000000     0.423440000000    -0.6305     
O63      O      0.051320000000     0.928760000000     0.511690000000    -0.61983    
O64      O      0.951170000000     0.035560000000     0.466200000000    -0.483918   
O65      O      0.033050000000     0.345570000000     0.994970000000    -0.373864   
O66      O      0.008710000000     0.352180000000     0.916730000000    -0.363929   
O67      O      0.832360000000     0.414600000000     0.049050000000    -0.387354   
O68      O      0.891540000000     0.501280000000     0.067170000000    -0.333716   
O69      O      0.832580000000     0.341680000000     0.923130000000    -0.387933   
O70      O      0.903350000000     0.346440000000     0.880410000000    -0.332958   
O71      O      0.017670000000     0.419080000000     0.122260000000    -0.372902   
O72      O      0.001260000000     0.490490000000     0.125590000000    -0.371393   
O73      O      0.954510000000     0.314750000000     0.075840000000    -0.337907   
O74      O      0.106650000000     0.407820000000     0.074760000000    -0.523947   
O75      O      0.798410000000     0.321110000000     0.012330000000    -0.518088   
O76      O      0.798930000000     0.430100000000     0.940090000000    -0.359729   
O77      O      0.943930000000     0.380630000000     0.975700000000    -0.501078   
O78      O      0.943660000000     0.430220000000     0.045370000000    -0.637804   
O79      O      0.153910000000     0.614290000000     0.027980000000    -0.386604   
O80      O      0.083280000000     0.609770000000     0.071200000000    -0.346898   
O81      O      0.969820000000     0.539580000000     0.832670000000    -0.371894   
O82      O      0.970870000000     0.460520000000     0.826840000000    -0.36522    
O83      O      0.967950000000     0.620520000000     0.957830000000    -0.358725   
O84      O      0.987160000000     0.609160000000     0.036280000000    -0.362115   
O85      O      0.141710000000     0.542950000000     0.894650000000    -0.369981   
O86      O      0.089550000000     0.455290000000     0.878620000000    -0.367772   
O87      O      0.194970000000     0.633000000000     0.943300000000    -0.520848   
O88      O      0.188870000000     0.524080000000     0.008510000000    -0.368746   
O89      O      0.033880000000     0.641330000000     0.875040000000    -0.330309   
O90      O      0.882180000000     0.552010000000     0.881290000000    -0.525188   
O91      O      0.044080000000     0.575140000000     0.977310000000    -0.644434   
O92      O      0.043380000000     0.526000000000     0.906700000000    -0.488753   
O93      O      0.066700000000     0.501440000000     0.041690000000    -0.493738   
O94      O      0.920560000000     0.456360000000     0.911450000000    -0.639436   
O95      O      0.066250000000     0.451880000000     0.969720000000    -0.630663   
O96      O      0.919640000000     0.504510000000     0.982960000000    -0.486484   
O97      O      0.940680000000     0.323530000000     0.566730000000    -0.352746   
O98      O      0.977710000000     0.322420000000     0.498600000000    -0.368725   
O99      O      0.832830000000     0.486050000000     0.485640000000    -0.397502   
O100     O      0.897680000000     0.573460000000     0.478690000000    -0.342441   
O101     O      0.844800000000     0.344530000000     0.471940000000    -0.37164    
O102     O      0.905550000000     0.325260000000     0.437620000000    -0.355317   
O103     O      0.931460000000     0.465110000000     0.624820000000    -0.380624   
O104     O      0.949880000000     0.551230000000     0.597540000000    -0.380607   
O105     O      0.862010000000     0.350900000000     0.604760000000    -0.330899   
O106     O      0.012040000000     0.410810000000     0.644730000000    -0.530355   
O107     O      0.769660000000     0.381200000000     0.457360000000    -0.528776   
O108     O      0.840540000000     0.438330000000     0.372080000000    -0.35303    
O109     O      0.926050000000     0.397230000000     0.496680000000    -0.495574   
O110     O      0.911210000000     0.468170000000     0.531080000000    -0.606508   
O111     O      0.142290000000     0.611920000000     0.547320000000    -0.393075   
O112     O      0.075860000000     0.641310000000     0.548420000000    -0.358893   
O113     O      0.024960000000     0.492320000000     0.342190000000    -0.37222    
O114     O      0.019370000000     0.411050000000     0.370290000000    -0.374954   
O115     O      0.033770000000     0.637210000000     0.401730000000    -0.357438   
O116     O      0.013030000000     0.649810000000     0.473010000000    -0.359315   
O117     O      0.157430000000     0.500950000000     0.474830000000    -0.360911   
O118     O      0.100710000000     0.411050000000     0.470450000000    -0.363774   
O119     O      0.207950000000     0.573550000000     0.549020000000    -0.524499   
O120     O      0.123390000000     0.480630000000     0.598480000000    -0.36324    
O121     O      0.126600000000     0.604540000000     0.375320000000    -0.341048   
O122     O      0.984370000000     0.568010000000     0.329250000000    -0.521982   
O123     O      0.064260000000     0.574440000000     0.478180000000    -0.633181   
O124     O      0.075420000000     0.500210000000     0.444930000000    -0.480462   
O125     O      0.026440000000     0.512770000000     0.565190000000    -0.495463   
O126     O      0.953500000000     0.452830000000     0.410390000000    -0.625681   
O127     O      0.036990000000     0.430350000000     0.532360000000    -0.633938   
O128     O      0.945420000000     0.532200000000     0.442620000000    -0.488987   
O129     O      0.331530000000     0.958030000000     0.912600000000    -0.3708     
O130     O      0.310210000000     0.945110000000     0.989440000000    -0.362605   
O131     O      0.505620000000     0.849160000000     0.951720000000    -0.380517   
O132     O      0.594030000000     0.917900000000     0.928250000000    -0.357389   
O133     O      0.362130000000     0.822510000000     0.042550000000    -0.379723   
O134     O      0.325710000000     0.876900000000     0.058390000000    -0.350736   
O135     O      0.504730000000     0.016440000000     0.842730000000    -0.357711   
O136     O      0.585730000000     0.006290000000     0.866020000000    -0.363062   
O137     O      0.385330000000     0.912450000000     0.851520000000    -0.356651   
O138     O      0.415830000000     0.047280000000     0.854560000000    -0.523173   
O139     O      0.379140000000     0.798770000000     0.953050000000    -0.522878   
O140     O      0.473000000000     0.810790000000     0.051700000000    -0.342968   
O141     O      0.396800000000     0.919100000000     0.971390000000    -0.501049   
O142     O      0.488600000000     0.934900000000     0.930080000000    -0.623121   
O143     O      0.628160000000     0.144050000000     0.944220000000    -0.37827    
O144     O      0.664190000000     0.091100000000     0.924440000000    -0.353664   
O145     O      0.492050000000     0.963190000000     0.145300000000    -0.377619   
O146     O      0.406070000000     0.963430000000     0.119180000000    -0.364558   
O147     O      0.661220000000     0.013600000000     0.074140000000    -0.357105   
O148     O      0.683370000000     0.020830000000     0.998220000000    -0.363468   
O149     O      0.486570000000     0.124070000000     0.030700000000    -0.371346   
O150     O      0.397630000000     0.050540000000     0.047820000000    -0.364875   
O151     O      0.613650000000     0.165790000000     0.037300000000    -0.524352   
O152     O      0.523500000000     0.158710000000     0.934080000000    -0.354716   
O153     O      0.612690000000     0.054500000000     0.136150000000    -0.339057   
O154     O      0.570000000000     0.916330000000     0.129300000000    -0.528815   
O155     O      0.595360000000     0.048930000000     0.014310000000    -0.63232    
O156     O      0.503210000000     0.033680000000     0.056920000000    -0.496238   
O157     O      0.535280000000     0.046010000000     0.927220000000    -0.484733   
O158     O      0.457990000000     0.921740000000     0.060160000000    -0.638486   
O159     O      0.441620000000     0.033430000000     0.968000000000    -0.635248   
O160     O      0.551380000000     0.934550000000     0.018750000000    -0.492232   
O161     O      0.490430000000     0.137240000000     0.431820000000    -0.378588   
O162     O      0.528040000000     0.152390000000     0.507030000000    -0.370857   
O163     O      0.304450000000     0.880170000000     0.483320000000    -0.377077   
O164     O      0.350450000000     0.832340000000     0.480770000000    -0.336032   
O165     O      0.368370000000     0.024250000000     0.560220000000    -0.380958   
O166     O      0.459140000000     0.096030000000     0.574440000000    -0.362299   
O167     O      0.421820000000     0.987530000000     0.350730000000    -0.374894   
O168     O      0.414330000000     0.903730000000     0.369110000000    -0.382909   
O169     O      0.362530000000     0.042890000000     0.400250000000    -0.350042   
O170     O      0.498200000000     0.100480000000     0.348810000000    -0.522202   
O171     O      0.279190000000     0.947280000000     0.528770000000    -0.515191   
O172     O      0.339270000000     0.891690000000     0.601090000000    -0.358667   
O173     O      0.434570000000     0.039790000000     0.496730000000    -0.502204   
O174     O      0.393710000000     0.952750000000     0.449060000000    -0.622214   
O175     O      0.572330000000     0.973320000000     0.401660000000    -0.367179   
O176     O      0.521950000000     0.885820000000     0.418880000000    -0.345399   
O177     O      0.564590000000     0.991460000000     0.640230000000    -0.38017    
O178     O      0.561850000000     0.071050000000     0.624350000000    -0.378644   
O179     O      0.478220000000     0.835090000000     0.560370000000    -0.359898   
O180     O      0.439400000000     0.820570000000     0.485230000000    -0.374819   
O181     O      0.657710000000     0.123290000000     0.472690000000    -0.388696   
O182     O      0.624870000000     0.147300000000     0.530710000000    -0.352327   
O183     O      0.661780000000     0.012680000000     0.529040000000    -0.521193   
O184     O      0.682300000000     0.081490000000     0.418030000000    -0.324118   
O185     O      0.588130000000     0.907860000000     0.608440000000    -0.348987   
O186     O      0.452270000000     0.879680000000     0.642760000000    -0.526118   
O187     O      0.538010000000     0.936960000000     0.498920000000    -0.624021   
O188     O      0.576560000000     0.021970000000     0.546510000000    -0.491641   
O189     O      0.509480000000     0.993930000000     0.419270000000    -0.474736   
O190     O      0.461610000000     0.982820000000     0.578340000000    -0.62959    
O191     O      0.545000000000     0.075250000000     0.464260000000    -0.645675   
O192     O      0.423110000000     0.899730000000     0.529510000000    -0.485116   
O193     O      0.465110000000     0.330080000000     0.050770000000    -0.357623   
O194     O      0.497670000000     0.328180000000     0.980760000000    -0.350523   
O195     O      0.328270000000     0.463460000000     0.963740000000    -0.397805   
O196     O      0.381760000000     0.552780000000     0.968890000000    -0.339107   
O197     O      0.358150000000     0.354120000000     0.894870000000    -0.376254   
O198     O      0.426410000000     0.330830000000     0.927100000000    -0.337685   
O199     O      0.436370000000     0.458770000000     0.108550000000    -0.37731    
O200     O      0.448780000000     0.543340000000     0.083320000000    -0.37287    
O201     O      0.368500000000     0.345940000000     0.079970000000    -0.325155   
O202     O      0.516560000000     0.409860000000     0.126130000000    -0.525647   
O203     O      0.285200000000     0.374160000000     0.927650000000    -0.513237   
O204     O      0.367230000000     0.474290000000     0.851910000000    -0.355249   
O205     O      0.435230000000     0.393520000000     0.975450000000    -0.496895   
O206     O      0.414570000000     0.461310000000     0.008460000000    -0.619369   
O207     O      0.640480000000     0.623370000000     0.043760000000    -0.379478   
O208     O      0.563810000000     0.641720000000     0.030030000000    -0.354427   
O209     O      0.569060000000     0.515890000000     0.834090000000    -0.373474   
O210     O      0.552230000000     0.429870000000     0.857160000000    -0.360301   
O211     O      0.555590000000     0.650500000000     0.895190000000    -0.355131   
O212     O      0.503010000000     0.643530000000     0.956650000000    -0.353506   
O213     O      0.666500000000     0.508190000000     0.969490000000    -0.363367   
O214     O      0.616470000000     0.418500000000     0.967500000000    -0.359991   
O215     O      0.718320000000     0.602420000000     0.018120000000    -0.527356   
O216     O      0.640430000000     0.503150000000     0.090030000000    -0.365646   
O217     O      0.636930000000     0.624820000000     0.859070000000    -0.328242   
O218     O      0.487710000000     0.569420000000     0.818740000000    -0.523452   
O219     O      0.567750000000     0.580850000000     0.966720000000    -0.635469   
O220     O      0.589030000000     0.512120000000     0.935090000000    -0.469671   
O221     O      0.527060000000     0.513650000000     0.050010000000    -0.487663   
O222     O      0.475310000000     0.461280000000     0.890950000000    -0.623054   
O223     O      0.551580000000     0.441810000000     0.017800000000    -0.626749   
O224     O      0.452090000000     0.533690000000     0.923040000000    -0.484908   
O225     O      0.573500000000     0.376200000000     0.487220000000    -0.378835   
O226     O      0.549700000000     0.380640000000     0.408650000000    -0.368188   
O227     O      0.344280000000     0.424640000000     0.539730000000    -0.385994   
O228     O      0.399950000000     0.514150000000     0.549630000000    -0.353254   
O229     O      0.354660000000     0.340770000000     0.426970000000    -0.383735   
O230     O      0.423910000000     0.353230000000     0.378290000000    -0.323033   
O231     O      0.542500000000     0.439030000000     0.615230000000    -0.364976   
O232     O      0.524010000000     0.509190000000     0.619850000000    -0.375823   
O233     O      0.481660000000     0.331170000000     0.565480000000    -0.352227   
O234     O      0.630670000000     0.429960000000     0.571700000000    -0.523438   
O235     O      0.337050000000     0.327560000000     0.523510000000    -0.523176   
O236     O      0.304000000000     0.408050000000     0.433630000000    -0.362522   
O237     O      0.467900000000     0.393040000000     0.469750000000    -0.5013     
O238     O      0.462940000000     0.442060000000     0.541760000000    -0.632845   
O239     O      0.665190000000     0.627810000000     0.525140000000    -0.388426   
O240     O      0.592110000000     0.622070000000     0.565960000000    -0.350831   
O241     O      0.471660000000     0.542120000000     0.324340000000    -0.360938   
O242     O      0.484420000000     0.468820000000     0.319490000000    -0.363738   
O243     O      0.475700000000     0.628340000000     0.450500000000    -0.355145   
O244     O      0.496380000000     0.619990000000     0.529030000000    -0.369664   
O245     O      0.646070000000     0.566850000000     0.382870000000    -0.36424    
O246     O      0.612830000000     0.480890000000     0.369500000000    -0.343904   
O247     O      0.695160000000     0.661080000000     0.435690000000    -0.529082   
O248     O      0.712000000000     0.553990000000     0.487690000000    -0.367712   
O249     O      0.529260000000     0.645800000000     0.361640000000    -0.324962   
O250     O      0.381990000000     0.547160000000     0.378010000000    -0.528237   
O251     O      0.551680000000     0.588030000000     0.469340000000    -0.638004   
O252     O      0.554790000000     0.539840000000     0.398690000000    -0.474554   
O253     O      0.582640000000     0.520010000000     0.532820000000    -0.495572   
O254     O      0.434640000000     0.462320000000     0.407030000000    -0.632432   
O255     O      0.586840000000     0.473620000000     0.462060000000    -0.626221   
O256     O      0.430270000000     0.508890000000     0.476830000000    -0.485979   
O257     O      0.583500000000     0.353950000000     0.810490000000    -0.244351   
O258     O      0.491280000000     0.340570000000     0.798910000000    -0.34217    
O259     O      0.400690000000     0.364870000000     0.265150000000    -0.226393   
O260     O      0.349130000000     0.401850000000     0.286220000000    -0.34508    
O261     O      0.468750000000     0.715410000000     0.384280000000    -0.241206   
O262     O      0.381200000000     0.654330000000     0.411260000000    -0.333261   
O263     O      0.625290000000     0.253070000000     0.380750000000    -0.26324    
O264     O      0.670370000000     0.341570000000     0.357320000000    -0.345125   
O265     O      0.601310000000     0.141860000000     0.807840000000    -0.243786   
O266     O      0.511620000000     0.124400000000     0.777390000000    -0.341924   
O267     O      0.267570000000     0.898250000000     0.207880000000    -0.243914   
O268     O      0.312380000000     0.855780000000     0.185350000000    -0.337588   
O269     O      0.631200000000     0.794410000000     0.810140000000    -0.248004   
O270     O      0.538830000000     0.726160000000     0.814600000000    -0.340071   
O271     O      0.487650000000     0.148310000000     0.142780000000    -0.248163   
O272     O      0.395150000000     0.110270000000     0.164910000000    -0.33776    
O273     O      0.696480000000     0.254100000000     0.584440000000    -0.247979   
O274     O      0.728710000000     0.193630000000     0.600150000000    -0.340931   
O275     O      0.273900000000     0.685390000000     0.485880000000    -0.26659    
O276     O      0.200530000000     0.703750000000     0.463240000000    -0.351361   
O277     O      0.817010000000     0.523140000000     0.330920000000    -0.250269   
O278     O      0.739660000000     0.513170000000     0.282890000000    -0.336574   
O279     O      0.251810000000     0.531660000000     0.393770000000    -0.24861    
O280     O      0.269160000000     0.587560000000     0.448540000000    -0.340293   
O281     O      0.870020000000     0.362700000000     0.770370000000    -0.224868   
O282     O      0.835410000000     0.412750000000     0.795310000000    -0.347074   
O283     O      0.917270000000     0.504030000000     0.183820000000    -0.236265   
O284     O      0.878520000000     0.415230000000     0.176430000000    -0.344779   
O285     O      0.896850000000     0.274990000000     0.823710000000    -0.214799   
O286     O      0.873550000000     0.196620000000     0.866520000000    -0.352388   
O287     O      0.169230000000     0.674840000000     0.171270000000    -0.237358   
O288     O      0.141310000000     0.738120000000     0.167810000000    -0.346713   
O289     O      0.870930000000     0.590720000000     0.058240000000    -0.233556   
O290     O      0.846800000000     0.564170000000     0.132640000000    -0.330175   
O291     O      0.352140000000     0.655910000000     0.917700000000    -0.271454   
O292     O      0.379070000000     0.607470000000     0.880250000000    -0.344408   
O293     O      0.675400000000     0.675430000000     0.672850000000    -0.242068   
O294     O      0.648250000000     0.738580000000     0.674370000000    -0.345109   
O295     O      0.420210000000     0.273890000000     0.335280000000    -0.220041   
O296     O      0.385230000000     0.187380000000     0.363540000000    -0.347125   
O297     O      0.783270000000     0.052060000000     0.472070000000    -0.225555   
O298     O      0.768950000000     0.997940000000     0.538370000000    -0.342627   
O299     O      0.381290000000     0.160790000000     0.656680000000    -0.239502   
O300     O      0.358770000000     0.086280000000     0.705430000000    -0.346219   
O301     O      0.203900000000     0.896130000000     0.427750000000    -0.246051   
O302     O      0.143440000000     0.863700000000     0.487100000000    -0.355291   
O303     O      0.892350000000     0.116470000000     0.441760000000    -0.218409   
O304     O      0.961630000000     0.196500000000     0.411930000000    -0.345092   
O305     O      0.852310000000     0.790800000000     0.742600000000    -0.244107   
O306     O      0.802190000000     0.819040000000     0.778930000000    -0.330501   
O307     O      0.081290000000     0.133830000000     0.301830000000    -0.260268   
O308     O      0.992260000000     0.109400000000     0.266050000000    -0.338996   
O309     O      0.841920000000     0.725630000000     0.084880000000    -0.257769   
O310     O      0.842360000000     0.801560000000     0.098060000000    -0.346573   
O311     O      0.274200000000     0.225380000000     0.073320000000    -0.235354   
O312     O      0.268770000000     0.153870000000     0.043760000000    -0.352455   
O313     O      0.708570000000     0.944190000000     0.124960000000    -0.24855    
O314     O      0.713750000000     0.999500000000     0.176260000000    -0.335661   
O315     O      0.097230000000     0.896770000000     0.796120000000    -0.2494     
O316     O      0.162320000000     0.982620000000     0.809350000000    -0.335339   
O317     O      0.908490000000     0.676630000000     0.897620000000    -0.238772   
O318     O      0.848400000000     0.618900000000     0.952330000000    -0.338351   
O319     O      0.999260000000     0.201050000000     0.826650000000    -0.263442   
O320     O      0.090910000000     0.215070000000     0.823010000000    -0.343961   
Zr1      Zr     0.110200000000     0.025040000000     0.952500000000     1.38267    
Zr2      Zr     0.967640000000     0.039280000000     0.909200000000     1.37474    
Zr3      Zr     0.035900000000     0.940430000000     0.069180000000     1.37585    
Zr4      Zr     0.893150000000     0.957150000000     0.027510000000     1.38715    
Zr5      Zr     0.046160000000     0.079820000000     0.030630000000     1.36123    
Zr6      Zr     0.955830000000     0.901670000000     0.949350000000     1.37472    
Zr7      Zr     0.950090000000     0.869580000000     0.490570000000     1.38398    
Zr8      Zr     0.937750000000     0.983490000000     0.402690000000     1.37834    
Zr9      Zr     0.056690000000     0.975990000000     0.576760000000     1.38419    
Zr10     Zr     0.052720000000     0.092990000000     0.488820000000     1.39819    
Zr11     Zr     0.091160000000     0.994980000000     0.445440000000     1.35021    
Zr12     Zr     0.910800000000     0.971310000000     0.532210000000     1.37834    
Zr13     Zr     0.017010000000     0.405380000000     0.039150000000     1.38599    
Zr14     Zr     0.873010000000     0.408500000000     0.980660000000     1.38731    
Zr15     Zr     0.114400000000     0.547090000000     0.971300000000     1.38314    
Zr16     Zr     0.971580000000     0.552550000000     0.914860000000     1.40024    
Zr17     Zr     0.992550000000     0.429080000000     0.905750000000     1.37979    
Zr18     Zr     0.992790000000     0.526990000000     0.046320000000     1.38171    
Zr19     Zr     0.956720000000     0.418030000000     0.573670000000     1.39195    
Zr20     Zr     0.875070000000     0.438850000000     0.454620000000     1.39238    
Zr21     Zr     0.105090000000     0.523300000000     0.524010000000     1.39667    
Zr22     Zr     0.027030000000     0.546590000000     0.402170000000     1.38696    
Zr23     Zr     0.002730000000     0.406640000000     0.453430000000     1.36621    
Zr24     Zr     0.983380000000     0.563490000000     0.518820000000     1.35276    
Zr25     Zr     0.435940000000     0.983270000000     0.905880000000     1.37687    
Zr26     Zr     0.450990000000     0.872800000000     0.997500000000     1.38662    
Zr27     Zr     0.541290000000     0.095250000000     0.989850000000     1.39319    
Zr28     Zr     0.556780000000     0.985850000000     0.080590000000     1.38374    
Zr29     Zr     0.403780000000     0.969170000000     0.034510000000     1.37128    
Zr30     Zr     0.589750000000     0.998130000000     0.951360000000     1.35471    
Zr31     Zr     0.455790000000     0.041910000000     0.418400000000     1.39255    
Zr32     Zr     0.373730000000     0.951380000000     0.529440000000     1.39048    
Zr33     Zr     0.598320000000     0.027720000000     0.467750000000     1.38988    
Zr34     Zr     0.511570000000     0.931030000000     0.576890000000     1.37139    
Zr35     Zr     0.524810000000     0.071560000000     0.543410000000     1.39287    
Zr36     Zr     0.447250000000     0.903190000000     0.450840000000     1.37339    
Zr37     Zr     0.463920000000     0.417460000000     0.053460000000     1.38541    
Zr38     Zr     0.389010000000     0.438420000000     0.928670000000     1.38807    
Zr39     Zr     0.614690000000     0.537100000000     0.013870000000     1.37847    
Zr40     Zr     0.541580000000     0.557380000000     0.888920000000     1.38155    
Zr41     Zr     0.522170000000     0.415500000000     0.938510000000     1.35238    
Zr42     Zr     0.478480000000     0.558090000000     0.002180000000     1.3483     
Zr43     Zr     0.541270000000     0.424320000000     0.532320000000     1.38229    
Zr44     Zr     0.391530000000     0.413060000000     0.478020000000     1.3866     
Zr45     Zr     0.627660000000     0.568290000000     0.462410000000     1.38728    
Zr46     Zr     0.477440000000     0.558650000000     0.407340000000     1.38767    
Zr47     Zr     0.512240000000     0.443020000000     0.398330000000     1.37105    
Zr48     Zr     0.504220000000     0.538770000000     0.539630000000     1.36416    


