data_structure

_audit_creation_method RASPA-1.0
_audit_creation_date 2023-5-9
_audit_author_name 'Poobodin Mano'

_cell_length_a    44.7919
_cell_length_b    42.9118
_cell_length_c    42.6358
_cell_angle_alpha 90
_cell_angle_beta  90
_cell_angle_gamma 90
_cell_volume      81950.3

_symmetry_cell_setting          triclinic
_symmetry_space_group_name_Hall 'P 1'
_symmetry_space_group_name_H-M  'P 1'
_symmetry_Int_Tables_number     1

_symmetry_equiv_pos_as_xyz 'x,y,z'

loop_
_atom_site_label
_atom_site_type_symbol
_atom_site_fract_x
_atom_site_fract_y
_atom_site_fract_z
_atom_site_charge
C1       C      0.046840000000     0.123790000000     0.227630000000     0.393747   
C2       C      0.128560000000     0.088340000000     0.403450000000     0.391655   
C3       C      0.120660000000     0.062600000000     0.241300000000     0.399847   
C4       C      0.050140000000     0.165910000000     0.385450000000     0.392818   
C5       C      0.480160000000     0.596230000000     0.406640000000     0.39331    
C6       C      0.555520000000     0.483720000000     0.263000000000     0.391286   
C7       C      0.561190000000     0.520490000000     0.421020000000     0.396141   
C8       C      0.476140000000     0.553250000000     0.248680000000     0.392056   
C9       C      0.489470000000     0.284690000000     0.136970000000     0.390545   
C10      C      0.508430000000     0.433550000000     0.007050000000     0.387986   
C11      C      0.482440000000     0.276010000000     0.031420000000     0.388616   
C12      C      0.508290000000     0.444850000000     0.121150000000     0.392038   
C13      C      0.102280000000     0.426320000000     0.623410000000     0.391673   
C14      C      0.084160000000     0.255370000000     0.525460000000     0.388648   
C15      C      0.104510000000     0.416060000000     0.515560000000     0.391603   
C16      C      0.093950000000     0.265310000000     0.631060000000     0.389936   
C17      C      0.354950000000     0.137610000000     0.042830000000     0.391731   
C18      C      0.278330000000     0.037070000000     0.189150000000     0.394532   
C19      C      0.402000000000     0.080510000000     0.104040000000     0.394129   
C20      C      0.218350000000     0.107250000000     0.117650000000     0.388021   
C21      C      0.198500000000     0.533520000000     0.562220000000     0.390477   
C22      C      0.382250000000     0.486510000000     0.549560000000     0.389008   
C23      C      0.252640000000     0.467710000000     0.637950000000     0.393264   
C24      C      0.329140000000     0.545120000000     0.476360000000     0.39139    
C25      C      0.428410000000     0.478530000000     0.488830000000    -0.0719271  
C26      C      0.445480000000     0.452660000000     0.971620000000    -0.0742932  
C27      C      0.469190000000     0.443780000000     0.464890000000     0.00714632 
C28      C      0.437200000000     0.487500000000     0.019850000000     0.00272931 
C29      C      0.418380000000     0.220720000000     0.033980000000    -0.0776168  
C30      C      0.402430000000     0.204030000000     0.061170000000    -0.0799799  
C31      C      0.370970000000     0.192500000000     0.052000000000     0.00597147 
C32      C      0.450830000000     0.229670000000     0.042200000000     0.0035308  
C33      C      0.191100000000     0.435270000000     0.681530000000    -0.0747978  
C34      C      0.170450000000     0.448130000000     0.655660000000    -0.0764974  
C35      C      0.137510000000     0.444180000000     0.664800000000     0.0046453  
C36      C      0.221180000000     0.452100000000     0.683100000000     0.00594978 
C37      C      0.146780000000     0.204440000000     0.624420000000    -0.0776016  
C38      C      0.153570000000     0.162950000000     0.127100000000    -0.0822209  
C39      C      0.186480000000     0.155060000000     0.119710000000     0.00602435 
C40      C      0.113860000000     0.210720000000     0.633390000000     0.00408004 
C41      C      0.381390000000     0.573030000000     0.432630000000    -0.0803258  
C42      C      0.415470000000     0.572100000000     0.429650000000    -0.0743927  
C43      C      0.428490000000     0.604880000000     0.426160000000     0.00787654 
C44      C      0.368670000000     0.540070000000     0.436000000000     0.0117256  
C45      C      0.153290000000     0.561150000000     0.509950000000    -0.0769415  
C46      C      0.148080000000     0.059690000000     0.474240000000    -0.0796608  
C47      C      0.144650000000     0.092310000000     0.459600000000     0.00943871 
C48      C      0.156640000000     0.528350000000     0.524200000000     0.00984451 
C49      C      0.188850000000     0.044890000000     0.226700000000    -0.078319   
C50      C      0.221870000000     0.053340000000     0.229060000000    -0.0750577  
C51      C      0.241440000000     0.024050000000     0.230200000000     0.0104065  
C52      C      0.170270000000     0.073570000000     0.218570000000     0.0122006  
C53      C      0.428440000000     0.588260000000     0.199620000000    -0.0694279  
C54      C      0.439390000000     0.578130000000     0.166780000000    -0.0758184  
C55      C      0.436550000000     0.104490000000     0.142310000000     0.0111649  
C56      C      0.426850000000     0.561000000000     0.223070000000    -0.000410143
C57      C      0.557220000000     0.218910000000     0.456290000000    -0.0723337  
C58      C      0.092090000000     0.206920000000     0.458260000000    -0.0754812  
C59      C      0.607900000000     0.229220000000     0.481410000000     0.00353092 
C60      C      0.040970000000     0.193020000000     0.436130000000     0.0039371  
C61      C      0.109570000000     0.466810000000     0.440360000000    -0.0731542  
C62      C      0.618670000000     0.434040000000     0.440150000000    -0.0771676  
C63      C      0.140560000000     0.428500000000     0.473100000000     0.00910339 
C64      C      0.575070000000     0.472070000000     0.449140000000     0.00808801 
C65      C      0.036760000000     0.440640000000     0.197640000000    -0.0693531  
C66      C      0.514460000000     0.477150000000     0.191830000000    -0.074546   
C67      C      0.987860000000     0.461000000000     0.174310000000     0.00786342 
C68      C      0.565100000000     0.457980000000     0.211730000000     0.00528845 
C69      C      0.505830000000     0.223900000000     0.175570000000    -0.0789897  
C70      C      0.011390000000     0.178720000000     0.181330000000    -0.0782747  
C71      C      0.042380000000     0.171550000000     0.194650000000     0.00704351 
C72      C      0.477840000000     0.231470000000     0.156310000000     0.00915408 
C73      C      0.044330000000     0.125670000000     0.727430000000     0.393175   
C74      C      0.128050000000     0.088960000000     0.901740000000     0.391808   
C75      C      0.118980000000     0.065960000000     0.739240000000     0.399436   
C76      C      0.047930000000     0.165100000000     0.885910000000     0.392907   
C77      C      0.483420000000     0.596340000000     0.907380000000     0.393393   
C78      C      0.554940000000     0.479030000000     0.765100000000     0.390863   
C79      C      0.563530000000     0.518520000000     0.922330000000     0.396686   
C80      C      0.476960000000     0.550600000000     0.750320000000     0.392554   
C81      C      0.487860000000     0.278810000000     0.641670000000     0.391181   
C82      C      0.500560000000     0.426950000000     0.510030000000     0.391661   
C83      C      0.477490000000     0.268880000000     0.536700000000     0.388071   
C84      C      0.504140000000     0.439100000000     0.624900000000     0.392123   
C85      C      0.107150000000     0.422950000000     0.119250000000     0.391664   
C86      C      0.083830000000     0.251750000000     0.026090000000     0.388902   
C87      C      0.103930000000     0.412300000000     0.013520000000     0.388863   
C88      C      0.096290000000     0.261960000000     0.130330000000     0.390096   
C89      C      0.356860000000     0.136560000000     0.540820000000     0.390029   
C90      C      0.277940000000     0.048570000000     0.693980000000     0.394122   
C91      C      0.403050000000     0.079380000000     0.606110000000     0.394148   
C92      C      0.220210000000     0.115240000000     0.619350000000     0.389583   
C93      C      0.199900000000     0.527450000000     0.056500000000     0.390456   
C94      C      0.386120000000     0.489080000000     0.042940000000     0.387302   
C95      C      0.257130000000     0.459850000000     0.129300000000     0.393763   
C96      C      0.330280000000     0.548380000000     0.972140000000     0.391945   
C97      C      0.436020000000     0.485040000000     0.983930000000    -0.0686922  
C98      C      0.436710000000     0.445900000000     0.476360000000    -0.0732565  
C99      C      0.478350000000     0.451350000000     0.961320000000     0.00812822 
C100     C      0.432130000000     0.481450000000     0.524540000000     0.00680063 
C101     C      0.425210000000     0.206800000000     0.552380000000    -0.0766508  
C102     C      0.398590000000     0.212330000000     0.529950000000    -0.076211   
C103     C      0.370830000000     0.192890000000     0.538800000000     0.00501835 
C104     C      0.455800000000     0.214880000000     0.537850000000     0.00499851 
C105     C      0.198490000000     0.412350000000     0.164210000000    -0.0752271  
C106     C      0.175030000000     0.421280000000     0.139410000000    -0.0773565  
C107     C      0.148850000000     0.439650000000     0.153790000000     0.0113535  
C108     C      0.222020000000     0.437900000000     0.169040000000     0.00593381 
C109     C      0.147420000000     0.198180000000     0.125130000000    -0.0774897  
C110     C      0.154520000000     0.169610000000     0.625590000000    -0.0815755  
C111     C      0.187940000000     0.163130000000     0.619320000000     0.00641183 
C112     C      0.114910000000     0.206690000000     0.133880000000     0.0039466  
C113     C      0.383960000000     0.576990000000     0.930850000000    -0.0803889  
C114     C      0.418040000000     0.574960000000     0.928810000000    -0.0741258  
C115     C      0.432190000000     0.607350000000     0.926830000000     0.00828995 
C116     C      0.370180000000     0.544350000000     0.932140000000     0.0122431  
C117     C      0.154100000000     0.556920000000     0.006030000000    -0.0803856  
C118     C      0.148630000000     0.057590000000     0.970360000000    -0.0762496  
C119     C      0.144670000000     0.090970000000     0.957770000000     0.00856603 
C120     C      0.158270000000     0.523360000000     0.018080000000     0.0110202  
C121     C      0.187980000000     0.053650000000     0.726610000000    -0.0781679  
C122     C      0.219930000000     0.065140000000     0.731330000000    -0.0745367  
C123     C      0.241410000000     0.037690000000     0.736070000000     0.0112613  
C124     C      0.167690000000     0.080350000000     0.716430000000     0.0123046  
C125     C      0.430610000000     0.586660000000     0.700860000000    -0.0698019  
C126     C      0.441140000000     0.575560000000     0.668190000000    -0.074961   
C127     C      0.439610000000     0.101690000000     0.643320000000     0.0108569  
C128     C      0.427940000000     0.559850000000     0.724740000000    -5.02898e-05
C129     C      0.562850000000     0.219460000000     0.954140000000    -0.073157   
C130     C      0.090180000000     0.203400000000     0.958940000000    -0.0756633  
C131     C      0.612340000000     0.233940000000     0.979880000000     0.00568904 
C132     C      0.038560000000     0.191260000000     0.937090000000     0.00383764 
C133     C      0.109070000000     0.463960000000     0.937750000000    -0.0732838  
C134     C      0.625520000000     0.435710000000     0.941110000000    -0.0769433  
C135     C      0.139050000000     0.424300000000     0.969980000000     0.00877764 
C136     C      0.579940000000     0.471130000000     0.950550000000     0.00814823 
C137     C      0.035540000000     0.442760000000     0.694960000000    -0.0692801  
C138     C      0.512220000000     0.471440000000     0.695350000000    -0.0744734  
C139     C      0.985670000000     0.462760000000     0.673540000000     0.0076249  
C140     C      0.563310000000     0.452380000000     0.714040000000     0.00498022 
C141     C      0.506840000000     0.218020000000     0.678160000000    -0.07949    
C142     C      0.009170000000     0.180840000000     0.679410000000    -0.0786352  
C143     C      0.039170000000     0.173920000000     0.695200000000     0.00666391 
C144     C      0.477430000000     0.225440000000     0.661310000000     0.00964284 
C145     C      0.046840000000     0.623830000000     0.227650000000     0.39373    
C146     C      0.128520000000     0.588380000000     0.403490000000     0.391638   
C147     C      0.120660000000     0.562650000000     0.241340000000     0.399858   
C148     C      0.050090000000     0.665950000000     0.385470000000     0.392597   
C149     C      0.480210000000     0.096200000000     0.406650000000     0.393237   
C150     C      0.555530000000     0.983690000000     0.262980000000     0.389735   
C151     C      0.561240000000     0.020450000000     0.421010000000     0.396182   
C152     C      0.476140000000     0.053210000000     0.248690000000     0.392099   
C153     C      0.489450000000     0.784700000000     0.136980000000     0.390399   
C154     C      0.508440000000     0.933530000000     0.007030000000     0.388174   
C155     C      0.482430000000     0.776000000000     0.031420000000     0.388654   
C156     C      0.508300000000     0.944860000000     0.121130000000     0.391904   
C157     C      0.102290000000     0.926280000000     0.623390000000     0.391931   
C158     C      0.084120000000     0.755320000000     0.525480000000     0.388406   
C159     C      0.104510000000     0.916000000000     0.515550000000     0.391748   
C160     C      0.093920000000     0.765280000000     0.631080000000     0.389838   
C161     C      0.354920000000     0.637620000000     0.042840000000     0.391813   
C162     C      0.278320000000     0.537070000000     0.189160000000     0.394249   
C163     C      0.401970000000     0.580530000000     0.104030000000     0.394162   
C164     C      0.218330000000     0.607250000000     0.117670000000     0.387896   
C165     C      0.198540000000     0.033520000000     0.562200000000     0.390817   
C166     C      0.382280000000     0.986510000000     0.549570000000     0.387228   
C167     C      0.252660000000     0.967730000000     0.637950000000     0.393371   
C168     C      0.329180000000     0.045110000000     0.476360000000     0.391515   
C169     C      0.428430000000     0.978520000000     0.488830000000    -0.0713398  
C170     C      0.445490000000     0.952650000000     0.971610000000    -0.0740836  
C171     C      0.469200000000     0.943750000000     0.464880000000     0.00711256 
C172     C      0.437220000000     0.987480000000     0.019850000000     0.00137222 
C173     C      0.418350000000     0.720720000000     0.033990000000    -0.0776272  
C174     C      0.402410000000     0.704030000000     0.061180000000    -0.0799993  
C175     C      0.370940000000     0.692510000000     0.052010000000     0.00595753 
C176     C      0.450800000000     0.729670000000     0.042210000000     0.00353061 
C177     C      0.191120000000     0.935290000000     0.681520000000    -0.0748494  
C178     C      0.170460000000     0.948140000000     0.655660000000    -0.0764231  
C179     C      0.137530000000     0.944140000000     0.664780000000     0.00452631 
C180     C      0.221190000000     0.952130000000     0.683100000000     0.00601179 
C181     C      0.146730000000     0.704410000000     0.624450000000    -0.0776222  
C182     C      0.153550000000     0.662950000000     0.127130000000    -0.0821455  
C183     C      0.186460000000     0.655060000000     0.119730000000     0.00597577 
C184     C      0.113810000000     0.710690000000     0.633430000000     0.00417754 
C185     C      0.381450000000     0.073020000000     0.432640000000    -0.0802064  
C186     C      0.415520000000     0.072080000000     0.429660000000    -0.0744812  
C187     C      0.428550000000     0.104860000000     0.426180000000     0.00792884 
C188     C      0.368710000000     0.040060000000     0.436000000000     0.0117249  
C189     C      0.153340000000     0.061130000000     0.509910000000    -0.0768691  
C190     C      0.148030000000     0.559730000000     0.474280000000    -0.0795255  
C191     C      0.144600000000     0.592350000000     0.459640000000     0.0094262  
C192     C      0.156680000000     0.028330000000     0.524180000000     0.00975851 
C193     C      0.188850000000     0.544920000000     0.226740000000    -0.0782727  
C194     C      0.221880000000     0.553360000000     0.229090000000    -0.0751793  
C195     C      0.241440000000     0.524060000000     0.230220000000     0.0104728  
C196     C      0.170280000000     0.573610000000     0.218620000000     0.0121377  
C197     C      0.428470000000     0.088240000000     0.199630000000    -0.0694822  
C198     C      0.439410000000     0.078110000000     0.166790000000    -0.075842   
C199     C      0.436530000000     0.604510000000     0.142300000000     0.0110831  
C200     C      0.426860000000     0.060980000000     0.223080000000    -0.000305934
C201     C      0.557170000000     0.718920000000     0.456300000000    -0.0722965  
C202     C      0.092030000000     0.706880000000     0.458280000000    -0.0755544  
C203     C      0.607870000000     0.729150000000     0.481440000000     0.00355791 
C204     C      0.040890000000     0.693070000000     0.436140000000     0.00395962 
C205     C      0.109580000000     0.966740000000     0.440330000000    -0.0726412  
C206     C      0.618670000000     0.933970000000     0.440130000000    -0.0773012  
C207     C      0.140560000000     0.928430000000     0.473070000000     0.00917339 
C208     C      0.575100000000     0.972020000000     0.449110000000     0.00707807 
C209     C      0.036750000000     0.940620000000     0.197610000000    -0.069491   
C210     C      0.514470000000     0.977140000000     0.191810000000    -0.074426   
C211     C      0.987860000000     0.961010000000     0.174280000000     0.00772325 
C212     C      0.565100000000     0.957960000000     0.211710000000     0.00520275 
C213     C      0.505810000000     0.723920000000     0.175590000000    -0.0789313  
C214     C      0.011370000000     0.678750000000     0.181350000000    -0.0782346  
C215     C      0.042370000000     0.671580000000     0.194670000000     0.00696341 
C216     C      0.477820000000     0.731480000000     0.156320000000     0.00913192 
C217     C      0.044320000000     0.625680000000     0.727440000000     0.393399   
C218     C      0.128010000000     0.588970000000     0.901770000000     0.391688   
C219     C      0.118970000000     0.565970000000     0.739270000000     0.399628   
C220     C      0.047890000000     0.665120000000     0.885930000000     0.392931   
C221     C      0.483470000000     0.096320000000     0.907370000000     0.393728   
C222     C      0.554970000000     0.979010000000     0.765080000000     0.389312   
C223     C      0.563580000000     0.018510000000     0.922310000000     0.396772   
C224     C      0.476980000000     0.050570000000     0.750320000000     0.392575   
C225     C      0.487840000000     0.778800000000     0.641690000000     0.391089   
C226     C      0.500580000000     0.926920000000     0.510020000000     0.39153    
C227     C      0.477450000000     0.768860000000     0.536710000000     0.388155   
C228     C      0.504160000000     0.939080000000     0.624890000000     0.392135   
C229     C      0.107150000000     0.922940000000     0.119230000000     0.391821   
C230     C      0.083820000000     0.751720000000     0.026100000000     0.389049   
C231     C      0.103940000000     0.912270000000     0.013510000000     0.389016   
C232     C      0.096270000000     0.761950000000     0.130350000000     0.390001   
C233     C      0.356810000000     0.636560000000     0.540840000000     0.389904   
C234     C      0.277910000000     0.548540000000     0.693990000000     0.393975   
C235     C      0.403010000000     0.579380000000     0.606110000000     0.394      
C236     C      0.220170000000     0.615220000000     0.619380000000     0.389459   
C237     C      0.199920000000     0.027440000000     0.056480000000     0.390801   
C238     C      0.386140000000     0.989070000000     0.042930000000     0.385714   
C239     C      0.257140000000     0.959840000000     0.129280000000     0.393882   
C240     C      0.330320000000     0.048370000000     0.972130000000     0.391964   
C241     C      0.436030000000     0.985020000000     0.983920000000    -0.0698272  
C242     C      0.436720000000     0.945880000000     0.476360000000    -0.0735843  
C243     C      0.478360000000     0.951330000000     0.961300000000     0.00803065 
C244     C      0.432160000000     0.981440000000     0.524540000000     0.00492122 
C245     C      0.425160000000     0.706790000000     0.552400000000    -0.0766011  
C246     C      0.398540000000     0.712330000000     0.529970000000    -0.0763209  
C247     C      0.370780000000     0.692890000000     0.538820000000     0.00510817 
C248     C      0.455760000000     0.714870000000     0.537870000000     0.00499107 
C249     C      0.198490000000     0.912340000000     0.164190000000    -0.075329   
C250     C      0.175030000000     0.921270000000     0.139390000000    -0.0772749  
C251     C      0.148850000000     0.939640000000     0.153770000000     0.0112594  
C252     C      0.222020000000     0.937890000000     0.169020000000     0.00599953 
C253     C      0.147400000000     0.698170000000     0.125150000000    -0.0775539  
C254     C      0.154480000000     0.669580000000     0.625630000000    -0.0815685  
C255     C      0.187900000000     0.663110000000     0.619360000000     0.00640737 
C256     C      0.114880000000     0.706690000000     0.133910000000     0.00405589 
C257     C      0.384000000000     0.076980000000     0.930850000000    -0.0804187  
C258     C      0.418090000000     0.074950000000     0.928810000000    -0.0741862  
C259     C      0.432240000000     0.107330000000     0.926830000000     0.00837633 
C260     C      0.370220000000     0.044340000000     0.932140000000     0.0122386  
C261     C      0.154140000000     0.056910000000     0.006000000000    -0.0803758  
C262     C      0.148590000000     0.557600000000     0.970390000000    -0.0763167  
C263     C      0.144620000000     0.590990000000     0.957800000000     0.00863682 
C264     C      0.158300000000     0.023350000000     0.018050000000     0.0110526  
C265     C      0.187970000000     0.553640000000     0.726650000000    -0.0781586  
C266     C      0.219920000000     0.565120000000     0.731360000000    -0.0745865  
C267     C      0.241390000000     0.537650000000     0.736090000000     0.0111961  
C268     C      0.167680000000     0.580340000000     0.716470000000     0.0123355  
C269     C      0.430660000000     0.086640000000     0.700860000000    -0.0698231  
C270     C      0.441180000000     0.075540000000     0.668180000000    -0.074979   
C271     C      0.439570000000     0.601710000000     0.643320000000     0.0107378  
C272     C      0.427960000000     0.059820000000     0.724730000000    -4.91604e-05
C273     C      0.562830000000     0.719460000000     0.954170000000    -0.0730747  
C274     C      0.090150000000     0.703380000000     0.958960000000    -0.0756941  
C275     C      0.612320000000     0.733900000000     0.979910000000     0.00582469 
C276     C      0.038520000000     0.691280000000     0.937100000000     0.00392251 
C277     C      0.109090000000     0.963920000000     0.937730000000    -0.0728186  
C278     C      0.625540000000     0.935680000000     0.941100000000    -0.0770041  
C279     C      0.139070000000     0.924260000000     0.969960000000     0.00879394 
C280     C      0.579970000000     0.971110000000     0.950530000000     0.00709515 
C281     C      0.035550000000     0.942750000000     0.694940000000    -0.069389   
C282     C      0.512250000000     0.971440000000     0.695330000000    -0.0743724  
C283     C      0.985690000000     0.962760000000     0.673520000000     0.00753345 
C284     C      0.563340000000     0.952370000000     0.714020000000     0.0048853  
C285     C      0.506810000000     0.718030000000     0.678190000000    -0.0795096  
C286     C      0.009150000000     0.680850000000     0.679450000000    -0.0786979  
C287     C      0.039150000000     0.673930000000     0.695210000000     0.00680518 
C288     C      0.477400000000     0.725440000000     0.661340000000     0.009667   
C289     C      0.544080000000     0.132570000000     0.228110000000     0.393082   
C290     C      0.626750000000     0.092870000000     0.402690000000     0.391469   
C291     C      0.618780000000     0.073040000000     0.239580000000     0.39941    
C292     C      0.546880000000     0.169670000000     0.387080000000     0.393191   
C293     C      0.982020000000     0.594310000000     0.407120000000     0.39346    
C294     C      0.055770000000     0.476080000000     0.267220000000     0.390891   
C295     C      0.062370000000     0.517790000000     0.423940000000     0.396693   
C296     C      0.977510000000     0.547110000000     0.250390000000     0.39215    
C297     C      0.988210000000     0.274710000000     0.141590000000     0.391386   
C298     C      0.001550000000     0.423720000000     0.012030000000     0.388726   
C299     C      0.978350000000     0.265430000000     0.035740000000     0.388595   
C300     C      0.006900000000     0.434820000000     0.126270000000     0.392261   
C301     C      0.602270000000     0.428970000000     0.621680000000     0.392115   
C302     C      0.583850000000     0.256450000000     0.526490000000     0.388875   
C303     C      0.602360000000     0.417190000000     0.513220000000     0.391869   
C304     C      0.595830000000     0.267830000000     0.631020000000     0.389573   
C305     C      0.857020000000     0.135840000000     0.039050000000     0.390814   
C306     C      0.777490000000     0.052450000000     0.194460000000     0.393812   
C307     C      0.903420000000     0.079070000000     0.106630000000     0.393335   
C308     C      0.720430000000     0.117350000000     0.118140000000     0.388206   
C309     C      0.698770000000     0.534900000000     0.560200000000     0.390333   
C310     C      0.882570000000     0.487070000000     0.547750000000     0.3884     
C311     C      0.752590000000     0.467920000000     0.635490000000     0.393258   
C312     C      0.829700000000     0.546360000000     0.474870000000     0.39164    
C313     C      0.930110000000     0.479190000000     0.487780000000    -0.0719062  
C314     C      0.936970000000     0.444400000000     0.980160000000    -0.0741207  
C315     C      0.971480000000     0.444520000000     0.464780000000     0.00698656 
C316     C      0.932650000000     0.480220000000     0.028200000000     0.00360672 
C317     C      0.925380000000     0.204370000000     0.050320000000    -0.0766637  
C318     C      0.899220000000     0.210870000000     0.027570000000    -0.0758803  
C319     C      0.870990000000     0.191990000000     0.035720000000     0.00523668 
C320     C      0.956280000000     0.211660000000     0.036170000000     0.0053367  
C321     C      0.690830000000     0.435190000000     0.678410000000    -0.0746354  
C322     C      0.670400000000     0.448280000000     0.652420000000    -0.0762258  
C323     C      0.637510000000     0.447690000000     0.662570000000     0.00541229 
C324     C      0.720940000000     0.451900000000     0.680370000000     0.00587823 
C325     C      0.648760000000     0.206350000000     0.624720000000    -0.0777227  
C326     C      0.656230000000     0.174000000000     0.124640000000    -0.0815589  
C327     C      0.689340000000     0.166120000000     0.118000000000     0.00593176 
C328     C      0.615960000000     0.213280000000     0.633700000000     0.0040226  
C329     C      0.882720000000     0.573650000000     0.431850000000    -0.0802509  
C330     C      0.916810000000     0.572050000000     0.429400000000    -0.0744015  
C331     C      0.930480000000     0.604570000000     0.426150000000     0.0081762  
C332     C      0.869340000000     0.540920000000     0.434710000000     0.0118906  
C333     C      0.652990000000     0.563390000000     0.508480000000    -0.0769489  
C334     C      0.647460000000     0.062600000000     0.472800000000    -0.0796518  
C335     C      0.642950000000     0.095420000000     0.458940000000     0.00906876 
C336     C      0.656950000000     0.530360000000     0.522030000000     0.00959703 
C337     C      0.687660000000     0.060700000000     0.227250000000    -0.0785498  
C338     C      0.719870000000     0.071570000000     0.231380000000    -0.074574   
C339     C      0.740710000000     0.043730000000     0.236850000000     0.0110676  
C340     C      0.667660000000     0.087710000000     0.217320000000     0.0125932  
C341     C      0.931240000000     0.583210000000     0.201150000000    -0.0705685  
C342     C      0.941790000000     0.572800000000     0.168270000000    -0.0738744  
C343     C      0.940750000000     0.099580000000     0.144070000000     0.0103858  
C344     C      0.928590000000     0.555900000000     0.224450000000     0.000992051
C345     C      0.059560000000     0.217540000000     0.453480000000    -0.0725195  
C346     C      0.589750000000     0.207820000000     0.459710000000    -0.0753498  
C347     C      0.109200000000     0.228560000000     0.480650000000     0.00352014 
C348     C      0.537940000000     0.195190000000     0.438660000000     0.00414516 
C349     C      0.607170000000     0.467800000000     0.436720000000    -0.0733053  
C350     C      0.121670000000     0.433260000000     0.443460000000    -0.0770164  
C351     C      0.637570000000     0.429220000000     0.469780000000     0.0089713  
C352     C      0.077470000000     0.470460000000     0.453060000000     0.00812232 
C353     C      0.537450000000     0.450420000000     0.192090000000    -0.0693637  
C354     C      0.013680000000     0.467280000000     0.197250000000    -0.0745013  
C355     C      0.488680000000     0.471250000000     0.168720000000     0.00783158 
C356     C      0.064680000000     0.448710000000     0.216660000000     0.0049959  
C357     C      0.006770000000     0.213910000000     0.177830000000    -0.0795124  
C358     C      0.510390000000     0.188660000000     0.178860000000    -0.0789523  
C359     C      0.539340000000     0.181330000000     0.196520000000     0.00657388 
C360     C      0.977320000000     0.221400000000     0.161110000000     0.00960972 
C361     C      0.546840000000     0.127390000000     0.727740000000     0.393555   
C362     C      0.629720000000     0.088530000000     0.902340000000     0.391235   
C363     C      0.619770000000     0.066290000000     0.739530000000     0.399515   
C364     C      0.552530000000     0.167270000000     0.886030000000     0.393002   
C365     C      0.981380000000     0.591830000000     0.906950000000     0.393228   
C366     C      0.055710000000     0.477330000000     0.764500000000     0.391395   
C367     C      0.062840000000     0.516460000000     0.921830000000     0.396247   
C368     C      0.976380000000     0.547470000000     0.749450000000     0.392195   
C369     C      0.986190000000     0.276760000000     0.638970000000     0.390976   
C370     C      0.002090000000     0.426780000000     0.510160000000     0.390984   
C371     C      0.977900000000     0.268400000000     0.533820000000     0.388615   
C372     C      0.003960000000     0.437170000000     0.624960000000     0.392265   
C373     C      0.605860000000     0.433340000000     0.122640000000     0.392684   
C374     C      0.588220000000     0.261230000000     0.024850000000     0.387913   
C375     C      0.610490000000     0.421560000000     0.013640000000     0.389527   
C376     C      0.597890000000     0.271870000000     0.129590000000     0.389627   
C377     C      0.857220000000     0.137230000000     0.539480000000     0.390193   
C378     C      0.778290000000     0.047800000000     0.692390000000     0.394147   
C379     C      0.903540000000     0.078960000000     0.605210000000     0.394112   
C380     C      0.720820000000     0.115960000000     0.618400000000     0.38891    
C381     C      0.698480000000     0.534740000000     0.062620000000     0.390805   
C382     C      0.882280000000     0.486040000000     0.052050000000     0.387901   
C383     C      0.752870000000     0.469910000000     0.140930000000     0.393704   
C384     C      0.829570000000     0.543290000000     0.977180000000     0.391067   
C385     C      0.929450000000     0.477330000000     0.992430000000    -0.0689582  
C386     C      0.938770000000     0.446580000000     0.475520000000    -0.0732801  
C387     C      0.969180000000     0.441580000000     0.968070000000     0.00738401 
C388     C      0.932890000000     0.482100000000     0.523570000000     0.00653523 
C389     C      0.925680000000     0.207110000000     0.549540000000    -0.0764897  
C390     C      0.898610000000     0.213010000000     0.527800000000    -0.0762368  
C391     C      0.871010000000     0.193570000000     0.537070000000     0.00524902 
C392     C      0.955970000000     0.214550000000     0.534070000000     0.00521008 
C393     C      0.691190000000     0.440760000000     0.185080000000    -0.074262   
C394     C      0.672160000000     0.454090000000     0.158160000000    -0.0764715  
C395     C      0.638790000000     0.451610000000     0.165810000000     0.00551157 
C396     C      0.722130000000     0.455670000000     0.187070000000     0.00607089 
C397     C      0.649850000000     0.209180000000     0.123660000000    -0.0777474  
C398     C      0.655890000000     0.171350000000     0.625740000000    -0.0816184  
C399     C      0.689140000000     0.164260000000     0.619080000000     0.00625779 
C400     C      0.617070000000     0.216880000000     0.132170000000     0.0038984  
C401     C      0.882360000000     0.569900000000     0.933340000000    -0.0803644  
C402     C      0.916430000000     0.568510000000     0.930460000000    -0.0743185  
C403     C      0.929850000000     0.601070000000     0.926600000000     0.00796691 
C404     C      0.869220000000     0.537150000000     0.937090000000     0.0118235  
C405     C      0.654350000000     0.562350000000     0.009390000000    -0.0801828  
C406     C      0.649150000000     0.060260000000     0.973680000000    -0.0764436  
C407     C      0.646260000000     0.092640000000     0.958380000000     0.00845141 
C408     C      0.656730000000     0.529790000000     0.024420000000     0.0105247  
C409     C      0.688510000000     0.053190000000     0.726100000000    -0.0781507  
C410     C      0.720640000000     0.064200000000     0.730390000000    -0.0746732  
C411     C      0.741830000000     0.036410000000     0.734390000000     0.0112436  
C412     C      0.668440000000     0.080230000000     0.716400000000     0.0124042  
C413     C      0.930500000000     0.583950000000     0.700050000000    -0.0697834  
C414     C      0.941400000000     0.573440000000     0.667310000000    -0.0746414  
C415     C      0.940310000000     0.100070000000     0.642920000000     0.0107957  
C416     C      0.927580000000     0.556750000000     0.723460000000    -1.5268e-05 
C417     C      0.057870000000     0.214920000000     0.954780000000    -0.0719977  
C418     C      0.595960000000     0.210760000000     0.958450000000    -0.0761062  
C419     C      0.108170000000     0.224450000000     0.981150000000     0.00569818 
C420     C      0.545290000000     0.193740000000     0.937340000000     0.00413646 
C421     C      0.611840000000     0.468500000000     0.937070000000    -0.0728342  
C422     C      0.120140000000     0.429970000000     0.940510000000    -0.0769414  
C423     C      0.645610000000     0.433180000000     0.970180000000     0.00919124 
C424     C      0.077070000000     0.468440000000     0.950400000000     0.00812529 
C425     C      0.535230000000     0.444740000000     0.695100000000    -0.0694211  
C426     C      0.012100000000     0.469070000000     0.695720000000    -0.0744844  
C427     C      0.485790000000     0.465320000000     0.673140000000     0.00789425 
C428     C      0.063840000000     0.450840000000     0.713340000000     0.00515508 
C429     C      0.004210000000     0.216010000000     0.676120000000    -0.0793279  
C430     C      0.511570000000     0.182820000000     0.681450000000    -0.0783219  
C431     C      0.542310000000     0.175580000000     0.695360000000     0.00692745 
C432     C      0.975450000000     0.223250000000     0.658020000000     0.00940888 
C433     C      0.544080000000     0.632600000000     0.228120000000     0.393067   
C434     C      0.626700000000     0.592910000000     0.402720000000     0.391309   
C435     C      0.618780000000     0.573080000000     0.239610000000     0.399275   
C436     C      0.546830000000     0.669710000000     0.387090000000     0.393259   
C437     C      0.982060000000     0.094280000000     0.407120000000     0.393538   
C438     C      0.055760000000     0.976040000000     0.267200000000     0.389698   
C439     C      0.062400000000     0.017740000000     0.423920000000     0.396928   
C440     C      0.977510000000     0.047080000000     0.250400000000     0.392428   
C441     C      0.988190000000     0.774720000000     0.141590000000     0.391316   
C442     C      0.001560000000     0.923710000000     0.012000000000     0.388599   
C443     C      0.978330000000     0.765430000000     0.035740000000     0.388672   
C444     C      0.006900000000     0.934830000000     0.126240000000     0.392042   
C445     C      0.602290000000     0.928920000000     0.621670000000     0.39225    
C446     C      0.583820000000     0.756390000000     0.526510000000     0.388951   
C447     C      0.602370000000     0.917130000000     0.513200000000     0.391762   
C448     C      0.595800000000     0.767790000000     0.631040000000     0.389458   
C449     C      0.856990000000     0.635840000000     0.039070000000     0.390914   
C450     C      0.777480000000     0.552450000000     0.194490000000     0.393855   
C451     C      0.903390000000     0.579080000000     0.106640000000     0.393413   
C452     C      0.720410000000     0.617350000000     0.118170000000     0.388224   
C453     C      0.698810000000     0.034920000000     0.560190000000     0.390396   
C454     C      0.882600000000     0.987080000000     0.547760000000     0.386631   
C455     C      0.752610000000     0.967960000000     0.635500000000     0.39327    
C456     C      0.829730000000     0.046360000000     0.474860000000     0.391798   
C457     C      0.930120000000     0.979180000000     0.487780000000    -0.0712895  
C458     C      0.936970000000     0.944390000000     0.980150000000    -0.0744191  
C459     C      0.971470000000     0.944490000000     0.464780000000     0.0071613  
C460     C      0.932670000000     0.980210000000     0.028180000000     0.00169672 
C461     C      0.925360000000     0.704380000000     0.050340000000    -0.0768091  
C462     C      0.899190000000     0.710880000000     0.027590000000    -0.0758539  
C463     C      0.870970000000     0.692000000000     0.035750000000     0.00521423 
C464     C      0.956250000000     0.711660000000     0.036180000000     0.00555856 
C465     C      0.690850000000     0.935260000000     0.678450000000    -0.0747612  
C466     C      0.670420000000     0.948350000000     0.652460000000    -0.0761864  
C467     C      0.637520000000     0.947630000000     0.662570000000     0.00531445 
C468     C      0.720970000000     0.951970000000     0.680400000000     0.00591362 
C469     C      0.648720000000     0.706300000000     0.624740000000    -0.0777599  
C470     C      0.656200000000     0.673990000000     0.124670000000    -0.0815543  
C471     C      0.689310000000     0.666120000000     0.118030000000     0.0059254  
C472     C      0.615910000000     0.713230000000     0.633730000000     0.00400259 
C473     C      0.882770000000     0.073640000000     0.431850000000    -0.0801338  
C474     C      0.916850000000     0.072030000000     0.429410000000    -0.0744531  
C475     C      0.930520000000     0.104550000000     0.426160000000     0.00811701 
C476     C      0.869380000000     0.040910000000     0.434710000000     0.0117655  
C477     C      0.653030000000     0.063390000000     0.508460000000    -0.0769397  
C478     C      0.647400000000     0.562610000000     0.472830000000    -0.0796006  
C479     C      0.642890000000     0.595440000000     0.458980000000     0.00898361 
C480     C      0.656990000000     0.030370000000     0.522010000000     0.00955617 
C481     C      0.687660000000     0.560720000000     0.227290000000    -0.0784743  
C482     C      0.719870000000     0.571570000000     0.231410000000    -0.0745898  
C483     C      0.740710000000     0.543730000000     0.236880000000     0.0111273  
C484     C      0.667670000000     0.587740000000     0.217370000000     0.012507   
C485     C      0.931270000000     0.083190000000     0.201150000000    -0.0704759  
C486     C      0.941810000000     0.072780000000     0.168260000000    -0.0739917  
C487     C      0.940730000000     0.599600000000     0.144070000000     0.0102328  
C488     C      0.928590000000     0.055880000000     0.224440000000     0.000968826
C489     C      0.059520000000     0.717550000000     0.453500000000    -0.072481   
C490     C      0.589690000000     0.707780000000     0.459720000000    -0.0754187  
C491     C      0.109160000000     0.728490000000     0.480690000000     0.00360835 
C492     C      0.537860000000     0.695230000000     0.438670000000     0.00402023 
C493     C      0.607190000000     0.967730000000     0.436690000000    -0.0729419  
C494     C      0.121670000000     0.933180000000     0.443430000000    -0.0772569  
C495     C      0.637580000000     0.929130000000     0.469750000000     0.00901258 
C496     C      0.077490000000     0.970400000000     0.453030000000     0.00686664 
C497     C      0.537450000000     0.950400000000     0.192070000000    -0.0694697  
C498     C      0.013680000000     0.967280000000     0.197210000000    -0.074366   
C499     C      0.488690000000     0.971260000000     0.168700000000     0.00771291 
C500     C      0.064670000000     0.948670000000     0.216640000000     0.00495025 
C501     C      0.006750000000     0.713930000000     0.177850000000    -0.079571   
C502     C      0.510380000000     0.688680000000     0.178880000000    -0.0789702  
C503     C      0.539330000000     0.681350000000     0.196520000000     0.00670649 
C504     C      0.977300000000     0.721420000000     0.161120000000     0.00972565 
C505     C      0.546820000000     0.627400000000     0.727760000000     0.393671   
C506     C      0.629670000000     0.588530000000     0.902370000000     0.391221   
C507     C      0.619750000000     0.566290000000     0.739560000000     0.399508   
C508     C      0.552490000000     0.667280000000     0.886050000000     0.392835   
C509     C      0.981430000000     0.091810000000     0.906940000000     0.393313   
C510     C      0.055730000000     0.977320000000     0.764480000000     0.389911   
C511     C      0.062880000000     0.016450000000     0.921800000000     0.396562   
C512     C      0.976390000000     0.047440000000     0.749440000000     0.392385   
C513     C      0.986160000000     0.776760000000     0.638990000000     0.390961   
C514     C      0.002090000000     0.926750000000     0.510150000000     0.391028   
C515     C      0.977860000000     0.768380000000     0.533840000000     0.388625   
C516     C      0.003970000000     0.937160000000     0.624940000000     0.392295   
C517     C      0.605860000000     0.933330000000     0.122620000000     0.392927   
C518     C      0.588210000000     0.761210000000     0.024870000000     0.388236   
C519     C      0.610500000000     0.921530000000     0.013630000000     0.389437   
C520     C      0.597870000000     0.771860000000     0.129610000000     0.389452   
C521     C      0.857180000000     0.637220000000     0.539500000000     0.389921   
C522     C      0.778270000000     0.547730000000     0.692390000000     0.394108   
C523     C      0.903510000000     0.578950000000     0.605220000000     0.393883   
C524     C      0.720780000000     0.615910000000     0.618420000000     0.389141   
C525     C      0.698500000000     0.034730000000     0.062590000000     0.390882   
C526     C      0.882300000000     0.986030000000     0.052040000000     0.386207   
C527     C      0.752880000000     0.969910000000     0.140910000000     0.393532   
C528     C      0.829600000000     0.043280000000     0.977170000000     0.391591   
C529     C      0.929460000000     0.977320000000     0.992420000000    -0.0682449  
C530     C      0.938770000000     0.946560000000     0.475530000000    -0.0735801  
C531     C      0.969180000000     0.941560000000     0.968050000000     0.00753846 
C532     C      0.932920000000     0.982090000000     0.523580000000     0.00464994 
C533     C      0.925630000000     0.707100000000     0.549580000000    -0.0765619  
C534     C      0.898560000000     0.713010000000     0.527840000000    -0.0762154  
C535     C      0.870960000000     0.693570000000     0.537110000000     0.00516961 
C536     C      0.955920000000     0.714540000000     0.534100000000     0.00537376 
C537     C      0.691200000000     0.940760000000     0.185060000000    -0.074292   
C538     C      0.672170000000     0.954080000000     0.158140000000    -0.0764753  
C539     C      0.638800000000     0.951600000000     0.165790000000     0.00545234 
C540     C      0.722140000000     0.955680000000     0.187050000000     0.00607561 
C541     C      0.649820000000     0.709180000000     0.123690000000    -0.0778203  
C542     C      0.655840000000     0.671300000000     0.625780000000    -0.0815621  
C543     C      0.689090000000     0.664220000000     0.619110000000     0.00612913 
C544     C      0.617040000000     0.716870000000     0.132190000000     0.00392265 
C545     C      0.882400000000     0.069890000000     0.933330000000    -0.0803758  
C546     C      0.916480000000     0.068490000000     0.930460000000    -0.0743912  
C547     C      0.929890000000     0.101060000000     0.926600000000     0.00791527 
C548     C      0.869260000000     0.037140000000     0.937080000000     0.0118187  
C549     C      0.654380000000     0.062340000000     0.009350000000    -0.0800899  
C550     C      0.649110000000     0.560270000000     0.973720000000    -0.0763365  
C551     C      0.646210000000     0.592650000000     0.958410000000     0.00843023 
C552     C      0.656760000000     0.029780000000     0.024390000000     0.0105635  
C553     C      0.688490000000     0.553160000000     0.726140000000    -0.0779986  
C554     C      0.720630000000     0.564140000000     0.730420000000    -0.0747732  
C555     C      0.741800000000     0.536340000000     0.734400000000     0.0113443  
C556     C      0.668440000000     0.580210000000     0.716450000000     0.0122812  
C557     C      0.930540000000     0.083940000000     0.700050000000    -0.0697189  
C558     C      0.941440000000     0.073420000000     0.667310000000    -0.0747854  
C559     C      0.940270000000     0.600080000000     0.642930000000     0.0106601  
C560     C      0.927600000000     0.056730000000     0.723450000000    -3.20911e-05
C561     C      0.057850000000     0.714920000000     0.954800000000    -0.0719972  
C562     C      0.595930000000     0.710730000000     0.958470000000    -0.0761919  
C563     C      0.108150000000     0.724410000000     0.981160000000     0.00575582 
C564     C      0.545250000000     0.693760000000     0.937360000000     0.00406264 
C565     C      0.611870000000     0.968470000000     0.937060000000    -0.0724838  
C566     C      0.120160000000     0.929940000000     0.940490000000    -0.0771044  
C567     C      0.645630000000     0.933130000000     0.970170000000     0.00917398 
C568     C      0.077100000000     0.968410000000     0.950370000000     0.00697365 
C569     C      0.535250000000     0.944730000000     0.695080000000    -0.0695047  
C570     C      0.012120000000     0.969070000000     0.695690000000    -0.0743207  
C571     C      0.485820000000     0.965320000000     0.673120000000     0.00780766 
C572     C      0.063850000000     0.950820000000     0.713320000000     0.00514333 
C573     C      0.004190000000     0.716020000000     0.676150000000    -0.0792605  
C574     C      0.511540000000     0.682830000000     0.681480000000    -0.0782414  
C575     C      0.542300000000     0.675600000000     0.695380000000     0.00678859 
C576     C      0.975410000000     0.723260000000     0.658060000000     0.00934096 
H1       H      0.098050000000     0.130050000000     0.355520000000     0.205131   
H2       H      0.100090000000     0.514340000000     0.291060000000     0.200985   
H3       H      0.508980000000     0.537990000000     0.381300000000     0.205547   
H4       H      0.500660000000     0.111060000000     0.270400000000     0.202658   
H5       H      0.149050000000     0.517820000000     0.335900000000     0.125336   
H6       H      0.109510000000     0.466720000000     0.347180000000     0.182256   
H7       H      0.522250000000     0.462710000000     0.363430000000     0.138027   
H8       H      0.450900000000     0.527540000000     0.361030000000     0.195754   
H9       H      0.449560000000     0.124770000000     0.312940000000     0.12413    
H10      H      0.490370000000     0.177970000000     0.304740000000     0.184162   
H11      H      0.081420000000     0.187250000000     0.290000000000     0.141      
H12      H      0.144070000000     0.134860000000     0.317800000000     0.201357   
H13      H      0.455230000000     0.514130000000     0.324450000000     0.20826    
H14      H      0.518420000000     0.201170000000     0.293420000000     0.192464   
H15      H      0.170880000000     0.108320000000     0.312020000000     0.203295   
H16      H      0.080610000000     0.446080000000     0.360860000000     0.193377   
H17      H      0.488800000000     0.405090000000     0.068890000000     0.207144   
H18      H      0.534710000000     0.294640000000     0.512030000000     0.20004    
H19      H      0.112330000000     0.382500000000     0.569780000000     0.211252   
H20      H      0.044330000000     0.303440000000     0.149210000000     0.202171   
H21      H      0.507510000000     0.338070000000     0.465780000000     0.123708   
H22      H      0.569590000000     0.326730000000     0.458680000000     0.181729   
H23      H      0.141120000000     0.311350000000     0.542980000000     0.145187   
H24      H      0.149460000000     0.323660000000     0.604300000000     0.200305   
H25      H      0.081390000000     0.360620000000     0.183910000000     0.129715   
H26      H      0.017450000000     0.354500000000     0.193910000000     0.182865   
H27      H      0.445250000000     0.350790000000     0.104730000000     0.145777   
H28      H      0.444740000000     0.385160000000     0.029700000000     0.194378   
H29      H      0.153590000000     0.359440000000     0.619260000000     0.199558   
H30      H      0.981300000000     0.363550000000     0.189900000000     0.201058   
H31      H      0.439280000000     0.348040000000     0.040220000000     0.199765   
H32      H      0.605690000000     0.336760000000     0.460070000000     0.200156   
H33      H      0.278860000000     0.093510000000     0.143900000000     0.20301    
H34      H      0.373780000000     0.517410000000     0.099630000000     0.200005   
H35      H      0.251190000000     0.491530000000     0.571670000000     0.20838    
H36      H      0.307150000000     0.096930000000     0.514850000000     0.200811   
H37      H      0.375630000000     0.513540000000     0.160600000000     0.122992   
H38      H      0.354970000000     0.451290000000     0.129880000000     0.18851    
H39      H      0.309880000000     0.449650000000     0.536180000000     0.145886   
H40      H      0.274370000000     0.481750000000     0.494140000000     0.202113   
H41      H      0.236010000000     0.087950000000     0.497390000000     0.127718   
H42      H      0.257870000000     0.145210000000     0.524250000000     0.183389   
H43      H      0.315540000000     0.150570000000     0.123320000000     0.142887   
H44      H      0.322100000000     0.106380000000     0.184390000000     0.194021   
H45      H      0.239190000000     0.483930000000     0.507140000000     0.198227   
H46      H      0.267950000000     0.174240000000     0.548260000000     0.201311   
H47      H      0.351850000000     0.118220000000     0.163910000000     0.197383   
H48      H      0.342690000000     0.424460000000     0.104450000000     0.202771   
H49      H      0.438700000000     0.512530000000     0.026450000000     0.0406904  
H50      H      0.457580000000     0.475800000000     0.028860000000     0.0315497  
H51      H      0.472890000000     0.420290000000     0.454560000000     0.0389715  
H52      H      0.472750000000     0.461360000000     0.446090000000     0.0241307  
H53      H      0.431620000000     0.447110000000     0.950720000000     0.0392914  
H54      H      0.440950000000     0.434120000000     0.989210000000     0.0485646  
H55      H      0.505830000000     0.479440000000     0.991820000000     0.0996827  
H56      H      0.442090000000     0.496720000000     0.477040000000     0.0406101  
H57      H      0.404790000000     0.483620000000     0.482630000000     0.0494803  
H58      H      0.405800000000     0.444920000000     0.545850000000     0.0925839  
H59      H      0.459440000000     0.199440000000     0.517280000000     0.0269831  
H60      H      0.452480000000     0.236590000000     0.067320000000     0.0386704  
H61      H      0.357210000000     0.190680000000     0.073640000000     0.0362137  
H62      H      0.351190000000     0.201800000000     0.525640000000     0.029886   
H63      H      0.400200000000     0.220690000000     0.081020000000     0.0401735  
H64      H      0.392450000000     0.237410000000     0.530730000000     0.0407092  
H65      H      0.394100000000     0.153600000000     0.518150000000     0.0979719  
H66      H      0.421930000000     0.220780000000     0.574060000000     0.0470108  
H67      H      0.405440000000     0.242160000000     0.028400000000     0.0432711  
H68      H      0.448610000000     0.260990000000     0.002280000000     0.0957758  
H69      H      0.232270000000     0.434140000000     0.192470000000     0.0266185  
H70      H      0.217420000000     0.477500000000     0.686230000000     0.0403628  
H71      H      0.133870000000     0.420760000000     0.675310000000     0.0394482  
H72      H      0.157170000000     0.462270000000     0.163010000000     0.0264869  
H73      H      0.175080000000     0.435460000000     0.633430000000     0.0508143  
H74      H      0.185390000000     0.435030000000     0.120150000000     0.0535539  
H75      H      0.123540000000     0.468210000000     0.121610000000     0.100549   
H76      H      0.187410000000     0.407220000000     0.186990000000     0.0390516  
H77      H      0.194660000000     0.409870000000     0.677920000000     0.0428256  
H78      H      0.248580000000     0.422370000000     0.654240000000     0.096693   
H79      H      0.107790000000     0.192150000000     0.154090000000     0.0284762  
H80      H      0.099150000000     0.206000000000     0.612930000000     0.0414441  
H81      H      0.193230000000     0.167030000000     0.594140000000     0.0354095  
H82      H      0.201590000000     0.170030000000     0.133890000000     0.0332911  
H83      H      0.140820000000     0.156760000000     0.608100000000     0.0451803  
H84      H      0.148280000000     0.154850000000     0.151260000000     0.0451522  
H85      H      0.177510000000     0.109610000000     0.140020000000     0.0971643  
H86      H      0.163080000000     0.210170000000     0.141400000000     0.0441808  
H87      H      0.151090000000     0.213730000000     0.600500000000     0.045187   
H88      H      0.125190000000     0.249540000000     0.662880000000     0.097359   
H89      H      0.381970000000     0.026710000000     0.453500000000     0.0347913  
H90      H      0.370210000000     0.527970000000     0.413000000000     0.0223366  
H91      H      0.422470000000     0.614460000000     0.402750000000     0.04028    
H92      H      0.419110000000     0.120250000000     0.444690000000     0.0262876  
H93      H      0.421900000000     0.557800000000     0.408960000000     0.0444174  
H94      H      0.425060000000     0.061010000000     0.451040000000     0.0469744  
H95      H      0.469520000000     0.108500000000     0.452350000000     0.0994406  
H96      H      0.375400000000     0.087160000000     0.453560000000     0.0566691  
H97      H      0.371490000000     0.584300000000     0.411560000000     0.0461682  
H98      H      0.320990000000     0.537550000000     0.428970000000     0.0981339  
H99      H      0.171620000000     0.013910000000     0.509180000000     0.0330351  
H100     H      0.134290000000     0.517090000000     0.524910000000     0.0241577  
H101     H      0.122000000000     0.601700000000     0.464920000000     0.0395144  
H102     H      0.161590000000     0.108170000000     0.470050000000     0.025428   
H103     H      0.127650000000     0.545820000000     0.469170000000     0.0505272  
H104     H      0.167460000000     0.047700000000     0.463240000000     0.0524989  
H105     H      0.172490000000     0.088860000000     0.418640000000     0.100063   
H106     H      0.173970000000     0.074820000000     0.514460000000     0.054989   
H107     H      0.134310000000     0.573300000000     0.521490000000     0.044823   
H108     H      0.153930000000     0.528290000000     0.574930000000     0.0990124  
H109     H      0.177740000000     0.083030000000     0.195580000000     0.0272391  
H110     H      0.173360000000     0.591810000000     0.236950000000     0.0364897  
H111     H      0.242130000000     0.515060000000     0.254660000000     0.0248966  
H112     H      0.232190000000     0.005480000000     0.214760000000     0.0372697  
H113     H      0.225860000000     0.567570000000     0.250500000000     0.0425888  
H114     H      0.228020000000     0.067950000000     0.208500000000     0.0537545  
H115     H      0.288440000000     0.033110000000     0.236620000000     0.0991093  
H116     H      0.185390000000     0.027220000000     0.207920000000     0.0494862  
H117     H      0.181300000000     0.534810000000     0.249410000000     0.0532378  
H118     H      0.130570000000     0.559600000000     0.193860000000     0.101095   
H119     H      0.410610000000     0.543540000000     0.214230000000     0.0425448  
H120     H      0.418790000000     0.069840000000     0.246070000000     0.042721   
H121     H      0.418660000000     0.121100000000     0.149310000000     0.0289489  
H122     H      0.457840000000     0.617770000000     0.141290000000     0.0215232  
H123     H      0.426640000000     0.057160000000     0.159400000000     0.0572599  
H124     H      0.463270000000     0.571200000000     0.167940000000     0.0458672  
H125     H      0.445130000000     0.594910000000     0.093120000000     0.0977307  
H126     H      0.443560000000     0.606590000000     0.209000000000     0.0399069  
H127     H      0.405710000000     0.098400000000     0.197710000000     0.0436344  
H128     H      0.463650000000     0.033420000000     0.206650000000     0.0957759  
H129     H      0.017090000000     0.199570000000     0.438730000000     0.0284765  
H130     H      0.043760000000     0.169810000000     0.447340000000     0.0436318  
H131     H      0.630750000000     0.219370000000     0.483490000000     0.0265921  
H132     H      0.609710000000     0.252780000000     0.470710000000     0.0370775  
H133     H      0.103710000000     0.206470000000     0.435220000000     0.0441238  
H134     H      0.092560000000     0.182880000000     0.468020000000     0.0465029  
H135     H      0.089940000000     0.207620000000     0.521980000000     0.097604   
H136     H      0.547050000000     0.222050000000     0.479850000000     0.0443022  
H137     H      0.556570000000     0.241870000000     0.444190000000     0.0394935  
H138     H      0.542630000000     0.217290000000     0.393510000000     0.0945788  
H139     H      0.573300000000     0.463660000000     0.473640000000     0.038326   
H140     H      0.559510000000     0.458150000000     0.434390000000     0.0333544  
H141     H      0.148370000000     0.403920000000     0.473970000000     0.0355194  
H142     H      0.160450000000     0.443980000000     0.471880000000     0.0227236  
H143     H      0.632990000000     0.428470000000     0.419600000000     0.0348177  
H144     H      0.599840000000     0.417130000000     0.439850000000     0.0464799  
H145     H      0.620490000000     0.460810000000     0.504640000000     0.0967851  
H146     H      0.124620000000     0.483680000000     0.452310000000     0.0449016  
H147     H      0.109780000000     0.473020000000     0.415090000000     0.0520911  
H148     H      0.067960000000     0.516060000000     0.472300000000     0.0992265  
H149     H      0.574870000000     0.480620000000     0.204190000000     0.0402517  
H150     H      0.581920000000     0.439510000000     0.207010000000     0.0247926  
H151     H      0.976650000000     0.438680000000     0.180430000000     0.0373512  
H152     H      0.971330000000     0.480100000000     0.176950000000     0.0223221  
H153     H      0.525610000000     0.499430000000     0.185470000000     0.0573571  
H154     H      0.504910000000     0.479860000000     0.215740000000     0.0555563  
H155     H      0.505380000000     0.492760000000     0.126590000000     0.0993626  
H156     H      0.526840000000     0.428650000000     0.200820000000     0.0453798  
H157     H      0.044570000000     0.435720000000     0.173470000000     0.0543866  
H158     H      0.057960000000     0.428060000000     0.262160000000     0.0944569  
H159     H      0.458100000000     0.220280000000     0.167430000000     0.0213471  
H160     H      0.978060000000     0.212110000000     0.136750000000     0.0367026  
H161     H      0.059340000000     0.179260000000     0.177300000000     0.027745   
H162     H      0.539450000000     0.193570000000     0.219500000000     0.034481   
H163     H      0.009080000000     0.167220000000     0.158060000000     0.0433647  
H164     H      0.491200000000     0.178440000000     0.191850000000     0.0422445  
H165     H      0.543100000000     0.134200000000     0.179550000000     0.0985626  
H166     H      0.503580000000     0.234430000000     0.199300000000     0.0415018  
H167     H      0.025660000000     0.223960000000     0.164250000000     0.0546449  
H168     H      0.957880000000     0.264610000000     0.177010000000     0.0944152  
H169     H      0.096370000000     0.130690000000     0.854950000000     0.204826   
H170     H      0.099840000000     0.516070000000     0.788470000000     0.201114   
H171     H      0.510480000000     0.536600000000     0.882950000000     0.204025   
H172     H      0.503160000000     0.107990000000     0.770780000000     0.202879   
H173     H      0.148960000000     0.519710000000     0.833190000000     0.125538   
H174     H      0.110860000000     0.468130000000     0.843960000000     0.181991   
H175     H      0.520680000000     0.462800000000     0.868910000000     0.137833   
H176     H      0.452730000000     0.527080000000     0.863680000000     0.194999   
H177     H      0.452590000000     0.123760000000     0.813570000000     0.124452   
H178     H      0.494920000000     0.175990000000     0.805290000000     0.184935   
H179     H      0.078500000000     0.188530000000     0.790730000000     0.140936   
H180     H      0.142920000000     0.136620000000     0.818190000000     0.200781   
H181     H      0.455000000000     0.513760000000     0.826870000000     0.208222   
H182     H      0.523060000000     0.197570000000     0.791300000000     0.192567   
H183     H      0.169290000000     0.110510000000     0.809160000000     0.203412   
H184     H      0.082440000000     0.446360000000     0.856990000000     0.193181   
H185     H      0.483060000000     0.398900000000     0.573620000000     0.207355   
H186     H      0.541250000000     0.300360000000     0.009240000000     0.20102    
H187     H      0.113460000000     0.378830000000     0.068160000000     0.207198   
H188     H      0.041610000000     0.306020000000     0.648070000000     0.202542   
H189     H      0.516820000000     0.345800000000     0.961650000000     0.12428    
H190     H      0.579250000000     0.333930000000     0.957270000000     0.18191    
H191     H      0.141410000000     0.308300000000     0.041600000000     0.146074   
H192     H      0.152420000000     0.340310000000     0.094580000000     0.193128   
H193     H      0.078510000000     0.360550000000     0.684890000000     0.127483   
H194     H      0.013010000000     0.356930000000     0.692380000000     0.182089   
H195     H      0.441800000000     0.344120000000     0.611370000000     0.145987   
H196     H      0.438050000000     0.379010000000     0.535420000000     0.195186   
H197     H      0.155420000000     0.336150000000     0.133460000000     0.20116    
H198     H      0.976740000000     0.364900000000     0.687280000000     0.200559   
H199     H      0.433040000000     0.342320000000     0.547550000000     0.200541   
H200     H      0.616010000000     0.339780000000     0.961210000000     0.200229   
H201     H      0.280470000000     0.101000000000     0.645540000000     0.203745   
H202     H      0.371830000000     0.518360000000     0.605090000000     0.200136   
H203     H      0.254380000000     0.487050000000     0.064000000000     0.207771   
H204     H      0.306290000000     0.097670000000     0.013240000000     0.199956   
H205     H      0.373370000000     0.517480000000     0.666540000000     0.122857   
H206     H      0.350540000000     0.455640000000     0.639710000000     0.187981   
H207     H      0.315250000000     0.449270000000     0.026910000000     0.144897   
H208     H      0.278010000000     0.482300000000     0.986400000000     0.203167   
H209     H      0.235640000000     0.086620000000     0.994840000000     0.128615   
H210     H      0.255840000000     0.142580000000     0.024300000000     0.182513   
H211     H      0.320650000000     0.155470000000     0.620390000000     0.144734   
H212     H      0.324890000000     0.115530000000     0.683590000000     0.194669   
H213     H      0.242740000000     0.482380000000     0.999290000000     0.199043   
H214     H      0.264950000000     0.171000000000     0.049450000000     0.201111   
H215     H      0.356160000000     0.123090000000     0.663570000000     0.198283   
H216     H      0.337230000000     0.427680000000     0.616150000000     0.203242   
H217     H      0.435590000000     0.506360000000     0.530770000000     0.0406072  
H218     H      0.452400000000     0.469020000000     0.532740000000     0.0320394  
H219     H      0.482970000000     0.428420000000     0.950160000000     0.038748   
H220     H      0.482500000000     0.469320000000     0.943040000000     0.0235567  
H221     H      0.422030000000     0.440570000000     0.456020000000     0.0384905  
H222     H      0.432350000000     0.427610000000     0.494270000000     0.0466589  
H223     H      0.498140000000     0.472340000000     0.493340000000     0.0986273  
H224     H      0.450300000000     0.503550000000     0.973510000000     0.0399157  
H225     H      0.412840000000     0.490020000000     0.976050000000     0.0484694  
H226     H      0.411700000000     0.448940000000     0.038430000000     0.0915643  
H227     H      0.465680000000     0.209210000000     0.038790000000     0.0332896  
H228     H      0.473570000000     0.209730000000     0.555300000000     0.0402896  
H229     H      0.365630000000     0.195510000000     0.564180000000     0.0346148  
H230     H      0.359870000000     0.209680000000     0.036360000000     0.0280473  
H231     H      0.405000000000     0.206810000000     0.505350000000     0.0427774  
H232     H      0.416120000000     0.184060000000     0.069570000000     0.046941   
H233     H      0.390950000000     0.158460000000     0.021040000000     0.097338   
H234     H      0.418580000000     0.205750000000     0.012710000000     0.0422416  
H235     H      0.425980000000     0.181880000000     0.559500000000     0.0453242  
H236     H      0.441220000000     0.254380000000     0.510570000000     0.0966428  
H237     H      0.232870000000     0.443630000000     0.704470000000     0.0255146  
H238     H      0.211500000000     0.461360000000     0.169410000000     0.0410261  
H239     H      0.139100000000     0.426100000000     0.173560000000     0.0339945  
H240     H      0.132140000000     0.461910000000     0.682970000000     0.0258352  
H241     H      0.166510000000     0.399400000000     0.128810000000     0.0535088  
H242     H      0.174740000000     0.473340000000     0.651520000000     0.0539133  
H243     H      0.115590000000     0.472300000000     0.629650000000     0.0997835  
H244     H      0.180340000000     0.438200000000     0.704880000000     0.0375738  
H245     H      0.209690000000     0.390360000000     0.156960000000     0.0408186  
H246     H      0.256920000000     0.413910000000     0.143920000000     0.0966201  
H247     H      0.107250000000     0.194890000000     0.652820000000     0.0284672  
H248     H      0.099820000000     0.201820000000     0.113770000000     0.0413186  
H249     H      0.191310000000     0.159910000000     0.094590000000     0.035699   
H250     H      0.202050000000     0.179320000000     0.633280000000     0.0322463  
H251     H      0.138820000000     0.150360000000     0.110390000000     0.0452811  
H252     H      0.148700000000     0.160760000000     0.649350000000     0.0446541  
H253     H      0.180320000000     0.119150000000     0.642830000000     0.0969954  
H254     H      0.161780000000     0.216870000000     0.641040000000     0.0442409  
H255     H      0.152150000000     0.206660000000     0.100990000000     0.0458892  
H256     H      0.128880000000     0.246480000000     0.160750000000     0.0965567  
H257     H      0.382780000000     0.029580000000     0.949060000000     0.0347799  
H258     H      0.371760000000     0.533490000000     0.908520000000     0.02266    
H259     H      0.426680000000     0.618090000000     0.903780000000     0.040059   
H260     H      0.423180000000     0.122300000000     0.945890000000     0.027034   
H261     H      0.424530000000     0.561130000000     0.907830000000     0.0455974  
H262     H      0.426720000000     0.062850000000     0.950060000000     0.0470325  
H263     H      0.473360000000     0.109640000000     0.952940000000     0.100279   
H264     H      0.377850000000     0.090320000000     0.952260000000     0.0582418  
H265     H      0.374990000000     0.589600000000     0.910090000000     0.0468665  
H266     H      0.322580000000     0.542850000000     0.924390000000     0.0985619  
H267     H      0.173620000000     0.010360000000     0.002170000000     0.0317415  
H268     H      0.136210000000     0.511490000000     0.017980000000     0.0227412  
H269     H      0.121950000000     0.599690000000     0.963840000000     0.0401788  
H270     H      0.161520000000     0.106410000000     0.968960000000     0.0263738  
H271     H      0.128350000000     0.543720000000     0.964600000000     0.050843   
H272     H      0.168080000000     0.046570000000     0.958480000000     0.0524143  
H273     H      0.172120000000     0.090560000000     0.916390000000     0.100246   
H274     H      0.174500000000     0.070770000000     0.011270000000     0.0549544  
H275     H      0.134950000000     0.567850000000     0.018450000000     0.0450303  
H276     H      0.155510000000     0.519850000000     0.068670000000     0.0993574  
H277     H      0.175070000000     0.089060000000     0.693130000000     0.027362   
H278     H      0.169050000000     0.599720000000     0.733780000000     0.0361161  
H279     H      0.242320000000     0.531610000000     0.761430000000     0.0251498  
H280     H      0.233650000000     0.016760000000     0.723040000000     0.0351852  
H281     H      0.220980000000     0.580700000000     0.752180000000     0.0418546  
H282     H      0.226560000000     0.079260000000     0.710610000000     0.055019   
H283     H      0.288030000000     0.048890000000     0.741590000000     0.0992258  
H284     H      0.187330000000     0.035430000000     0.708030000000     0.0503051  
H285     H      0.179810000000     0.543200000000     0.748920000000     0.0546115  
H286     H      0.128820000000     0.563750000000     0.691700000000     0.100907   
H287     H      0.411020000000     0.542960000000     0.716190000000     0.042364   
H288     H      0.420270000000     0.069390000000     0.747580000000     0.0430764  
H289     H      0.422950000000     0.119640000000     0.650320000000     0.0291778  
H290     H      0.461660000000     0.613430000000     0.641720000000     0.0218073  
H291     H      0.427470000000     0.055160000000     0.661040000000     0.0558202  
H292     H      0.464660000000     0.567440000000     0.669510000000     0.0456697  
H293     H      0.446840000000     0.590450000000     0.594240000000     0.0980318  
H294     H      0.446450000000     0.604460000000     0.709960000000     0.0399341  
H295     H      0.408320000000     0.097750000000     0.698740000000     0.0450652  
H296     H      0.463580000000     0.030380000000     0.708770000000     0.0956021  
H297     H      0.014870000000     0.198390000000     0.940070000000     0.0285128  
H298     H      0.040910000000     0.167740000000     0.947750000000     0.044014   
H299     H      0.635740000000     0.225840000000     0.982630000000     0.027381   
H300     H      0.612800000000     0.257280000000     0.968560000000     0.0363796  
H301     H      0.101440000000     0.202770000000     0.935710000000     0.0447412  
H302     H      0.090190000000     0.179300000000     0.968570000000     0.047493   
H303     H      0.089410000000     0.203930000000     0.022940000000     0.0971139  
H304     H      0.552210000000     0.222890000000     0.977440000000     0.046089   
H305     H      0.560950000000     0.241830000000     0.941120000000     0.0404211  
H306     H      0.550350000000     0.215120000000     0.891780000000     0.0949795  
H307     H      0.579290000000     0.462980000000     0.975180000000     0.0410519  
H308     H      0.564650000000     0.456200000000     0.936490000000     0.03403    
H309     H      0.146180000000     0.399490000000     0.970520000000     0.0363549  
H310     H      0.159360000000     0.439170000000     0.968760000000     0.0235802  
H311     H      0.639500000000     0.430430000000     0.920230000000     0.0350748  
H312     H      0.607760000000     0.417610000000     0.942010000000     0.0478082  
H313     H      0.629080000000     0.464970000000     0.005130000000     0.0939482  
H314     H      0.124560000000     0.480210000000     0.949940000000     0.045039   
H315     H      0.109520000000     0.470460000000     0.912550000000     0.0519157  
H316     H      0.068510000000     0.514040000000     0.970150000000     0.0997388  
H317     H      0.573080000000     0.474820000000     0.705930000000     0.0407762  
H318     H      0.579930000000     0.433730000000     0.709260000000     0.0247609  
H319     H      0.974850000000     0.440280000000     0.679800000000     0.0375345  
H320     H      0.969040000000     0.481640000000     0.676840000000     0.0224109  
H321     H      0.523170000000     0.493680000000     0.688460000000     0.0575602  
H322     H      0.503360000000     0.474340000000     0.719530000000     0.0552844  
H323     H      0.500830000000     0.486980000000     0.630400000000     0.0993816  
H324     H      0.524840000000     0.423000000000     0.704200000000     0.0453742  
H325     H      0.042830000000     0.438430000000     0.670520000000     0.0556305  
H326     H      0.058420000000     0.429430000000     0.758670000000     0.0944548  
H327     H      0.458640000000     0.214120000000     0.674000000000     0.0214462  
H328     H      0.977330000000     0.214100000000     0.633670000000     0.0370089  
H329     H      0.057310000000     0.182370000000     0.679580000000     0.0284171  
H330     H      0.545330000000     0.188420000000     0.717800000000     0.034522   
H331     H      0.008810000000     0.169750000000     0.655820000000     0.043547   
H332     H      0.493960000000     0.172990000000     0.696960000000     0.0422275  
H333     H      0.545660000000     0.128200000000     0.679140000000     0.0986728  
H334     H      0.506530000000     0.228810000000     0.701890000000     0.0416527  
H335     H      0.023550000000     0.226510000000     0.663630000000     0.0542086  
H336     H      0.955180000000     0.266180000000     0.673580000000     0.0943404  
H337     H      0.098020000000     0.630100000000     0.355550000000     0.204969   
H338     H      0.100090000000     0.014300000000     0.291030000000     0.201662   
H339     H      0.509020000000     0.037950000000     0.381300000000     0.20546    
H340     H      0.500650000000     0.611090000000     0.270400000000     0.202816   
H341     H      0.149060000000     0.017770000000     0.335850000000     0.125752   
H342     H      0.109530000000     0.966680000000     0.347150000000     0.181675   
H343     H      0.522280000000     0.962670000000     0.363420000000     0.137927   
H344     H      0.450940000000     0.027520000000     0.361050000000     0.196135   
H345     H      0.449530000000     0.624800000000     0.312920000000     0.124211   
H346     H      0.490350000000     0.678000000000     0.304730000000     0.184374   
H347     H      0.081390000000     0.687290000000     0.290010000000     0.1409     
H348     H      0.144040000000     0.634910000000     0.317850000000     0.201289   
H349     H      0.455250000000     0.014100000000     0.324480000000     0.208757   
H350     H      0.518400000000     0.701210000000     0.293420000000     0.192452   
H351     H      0.170860000000     0.608380000000     0.312070000000     0.203316   
H352     H      0.080620000000     0.946030000000     0.360830000000     0.193073   
H353     H      0.488810000000     0.905090000000     0.068870000000     0.207297   
H354     H      0.534690000000     0.794600000000     0.512040000000     0.200069   
H355     H      0.112330000000     0.882450000000     0.569770000000     0.211107   
H356     H      0.044310000000     0.803450000000     0.149200000000     0.202492   
H357     H      0.507500000000     0.838020000000     0.465780000000     0.123837   
H358     H      0.569580000000     0.826650000000     0.458680000000     0.181716   
H359     H      0.141100000000     0.811300000000     0.543000000000     0.145161   
H360     H      0.149440000000     0.823590000000     0.604320000000     0.200454   
H361     H      0.081370000000     0.860630000000     0.183900000000     0.129493   
H362     H      0.017430000000     0.854500000000     0.193900000000     0.18277    
H363     H      0.445250000000     0.850800000000     0.104710000000     0.145963   
H364     H      0.444740000000     0.885160000000     0.029680000000     0.194195   
H365     H      0.153580000000     0.859400000000     0.619210000000     0.199481   
H366     H      0.981280000000     0.863580000000     0.189880000000     0.200738   
H367     H      0.439280000000     0.848040000000     0.040200000000     0.19986    
H368     H      0.605670000000     0.836690000000     0.460070000000     0.200342   
H369     H      0.278840000000     0.593520000000     0.143920000000     0.202816   
H370     H      0.373800000000     0.017400000000     0.099630000000     0.200279   
H371     H      0.251230000000     0.991550000000     0.571660000000     0.207263   
H372     H      0.307100000000     0.596930000000     0.514870000000     0.201028   
H373     H      0.375630000000     0.013520000000     0.160610000000     0.123346   
H374     H      0.354990000000     0.951280000000     0.129880000000     0.188059   
H375     H      0.309920000000     0.949650000000     0.536190000000     0.145601   
H376     H      0.274410000000     0.981750000000     0.494130000000     0.202046   
H377     H      0.235970000000     0.587950000000     0.497410000000     0.127777   
H378     H      0.257820000000     0.645210000000     0.524280000000     0.183079   
H379     H      0.315520000000     0.650580000000     0.123330000000     0.1429     
H380     H      0.322100000000     0.606380000000     0.184400000000     0.19411    
H381     H      0.239240000000     0.983930000000     0.507130000000     0.198011   
H382     H      0.267910000000     0.674240000000     0.548300000000     0.201006   
H383     H      0.351830000000     0.618230000000     0.163910000000     0.19759    
H384     H      0.342700000000     0.924450000000     0.104450000000     0.202663   
H385     H      0.438720000000     0.012510000000     0.026450000000     0.0417878  
H386     H      0.457600000000     0.975780000000     0.028850000000     0.0316306  
H387     H      0.472890000000     0.920260000000     0.454560000000     0.0389204  
H388     H      0.472760000000     0.961330000000     0.446080000000     0.0238961  
H389     H      0.431630000000     0.947100000000     0.950720000000     0.0390741  
H390     H      0.440960000000     0.934110000000     0.989200000000     0.0485319  
H391     H      0.505840000000     0.979420000000     0.991790000000     0.0993142  
H392     H      0.442120000000     0.996700000000     0.477040000000     0.0400186  
H393     H      0.404820000000     0.983610000000     0.482640000000     0.0489846  
H394     H      0.405830000000     0.944920000000     0.545860000000     0.0925575  
H395     H      0.459390000000     0.699420000000     0.517300000000     0.0269743  
H396     H      0.452460000000     0.736590000000     0.067330000000     0.0386846  
H397     H      0.357180000000     0.690690000000     0.073650000000     0.0362199  
H398     H      0.351140000000     0.701810000000     0.525670000000     0.0298591  
H399     H      0.400170000000     0.720690000000     0.081030000000     0.0401801  
H400     H      0.392410000000     0.737410000000     0.530760000000     0.040738   
H401     H      0.394050000000     0.653600000000     0.518160000000     0.097893   
H402     H      0.421890000000     0.720780000000     0.574090000000     0.0469767  
H403     H      0.405420000000     0.742160000000     0.028410000000     0.0432903  
H404     H      0.448590000000     0.760980000000     0.002280000000     0.0957352  
H405     H      0.232270000000     0.934140000000     0.192450000000     0.0263695  
H406     H      0.217420000000     0.977540000000     0.686210000000     0.0399595  
H407     H      0.133900000000     0.920710000000     0.675270000000     0.0394594  
H408     H      0.157180000000     0.962260000000     0.162980000000     0.0262354  
H409     H      0.175120000000     0.935480000000     0.633420000000     0.0507121  
H410     H      0.185390000000     0.935020000000     0.120120000000     0.0533984  
H411     H      0.123540000000     0.968200000000     0.121570000000     0.100235   
H412     H      0.187410000000     0.907210000000     0.186970000000     0.0389926  
H413     H      0.194690000000     0.909890000000     0.677920000000     0.0428142  
H414     H      0.248590000000     0.922390000000     0.654250000000     0.0965824  
H415     H      0.107770000000     0.692150000000     0.154120000000     0.0284468  
H416     H      0.099100000000     0.705960000000     0.612970000000     0.0414126  
H417     H      0.193190000000     0.667010000000     0.594170000000     0.0354036  
H418     H      0.201570000000     0.670030000000     0.133910000000     0.0333191  
H419     H      0.140780000000     0.656720000000     0.608150000000     0.0451606  
H420     H      0.148260000000     0.654860000000     0.151290000000     0.0451366  
H421     H      0.177500000000     0.609610000000     0.140050000000     0.09718    
H422     H      0.163060000000     0.710170000000     0.141410000000     0.0442027  
H423     H      0.151040000000     0.713690000000     0.600530000000     0.0452028  
H424     H      0.125150000000     0.749510000000     0.662920000000     0.0972684  
H425     H      0.381930000000     0.526720000000     0.453500000000     0.0344759  
H426     H      0.370260000000     0.027970000000     0.412990000000     0.0225576  
H427     H      0.422520000000     0.114450000000     0.402780000000     0.0402659  
H428     H      0.419050000000     0.620280000000     0.444660000000     0.0262983  
H429     H      0.421950000000     0.057790000000     0.408970000000     0.0445715  
H430     H      0.425010000000     0.561030000000     0.451030000000     0.0467861  
H431     H      0.469460000000     0.608520000000     0.452340000000     0.0993935  
H432     H      0.375350000000     0.587170000000     0.453550000000     0.0566936  
H433     H      0.371540000000     0.084290000000     0.411570000000     0.0461621  
H434     H      0.321040000000     0.037540000000     0.428960000000     0.0982886  
H435     H      0.171570000000     0.513930000000     0.509190000000     0.0326602  
H436     H      0.134340000000     0.017070000000     0.524880000000     0.0245437  
H437     H      0.122050000000     0.101670000000     0.464870000000     0.0395436  
H438     H      0.161530000000     0.608210000000     0.470100000000     0.0254242  
H439     H      0.127700000000     0.045780000000     0.469140000000     0.0507719  
H440     H      0.167410000000     0.547730000000     0.463260000000     0.0522555  
H441     H      0.172440000000     0.588920000000     0.418690000000     0.100067   
H442     H      0.173930000000     0.574840000000     0.514500000000     0.0549787  
H443     H      0.134350000000     0.073270000000     0.521440000000     0.044874   
H444     H      0.153970000000     0.028290000000     0.574910000000     0.0992893  
H445     H      0.177760000000     0.583080000000     0.195640000000     0.0272187  
H446     H      0.173350000000     0.091780000000     0.236890000000     0.0364733  
H447     H      0.242130000000     0.015050000000     0.254640000000     0.0251407  
H448     H      0.232180000000     0.505500000000     0.214780000000     0.0369133  
H449     H      0.225850000000     0.067550000000     0.250470000000     0.042591   
H450     H      0.228020000000     0.567970000000     0.208530000000     0.0537783  
H451     H      0.288440000000     0.533110000000     0.236630000000     0.099008   
H452     H      0.185380000000     0.527260000000     0.207960000000     0.0492432  
H453     H      0.181300000000     0.034780000000     0.249370000000     0.0534079  
H454     H      0.130560000000     0.059550000000     0.193820000000     0.101264   
H455     H      0.410600000000     0.043530000000     0.214230000000     0.0426836  
H456     H      0.418790000000     0.569860000000     0.246060000000     0.0426969  
H457     H      0.418640000000     0.621120000000     0.149300000000     0.0289561  
H458     H      0.457860000000     0.117750000000     0.141310000000     0.0215391  
H459     H      0.426640000000     0.557180000000     0.159390000000     0.0571462  
H460     H      0.463280000000     0.071160000000     0.167940000000     0.0460036  
H461     H      0.445160000000     0.094870000000     0.093140000000     0.097845   
H462     H      0.443610000000     0.106550000000     0.209010000000     0.0399194  
H463     H      0.405670000000     0.598400000000     0.197690000000     0.0436224  
H464     H      0.463650000000     0.533430000000     0.206640000000     0.0954143  
H465     H      0.017020000000     0.699660000000     0.438730000000     0.0284519  
H466     H      0.043650000000     0.669850000000     0.447350000000     0.0436258  
H467     H      0.630700000000     0.719260000000     0.483510000000     0.0265793  
H468     H      0.609710000000     0.752700000000     0.470740000000     0.0370808  
H469     H      0.103650000000     0.706420000000     0.435250000000     0.0441779  
H470     H      0.092470000000     0.682840000000     0.468040000000     0.046538   
H471     H      0.089900000000     0.707560000000     0.522020000000     0.0975536  
H472     H      0.547010000000     0.722070000000     0.479860000000     0.0442988  
H473     H      0.556560000000     0.741880000000     0.444210000000     0.0395042  
H474     H      0.542560000000     0.717330000000     0.393510000000     0.0945887  
H475     H      0.573320000000     0.963610000000     0.473620000000     0.0383293  
H476     H      0.559530000000     0.958110000000     0.434360000000     0.0333248  
H477     H      0.148360000000     0.903840000000     0.473950000000     0.0354618  
H478     H      0.160450000000     0.943890000000     0.471850000000     0.0224993  
H479     H      0.632990000000     0.928390000000     0.419570000000     0.0347141  
H480     H      0.599840000000     0.917070000000     0.439830000000     0.0464957  
H481     H      0.620520000000     0.960730000000     0.504610000000     0.0965539  
H482     H      0.124640000000     0.983610000000     0.452280000000     0.0443351  
H483     H      0.109800000000     0.972950000000     0.415050000000     0.0515801  
H484     H      0.067990000000     0.016020000000     0.472280000000     0.0994544  
H485     H      0.574880000000     0.980590000000     0.204180000000     0.0399485  
H486     H      0.581910000000     0.939480000000     0.206980000000     0.0247663  
H487     H      0.976640000000     0.938700000000     0.180390000000     0.0372825  
H488     H      0.971340000000     0.980130000000     0.176910000000     0.0219719  
H489     H      0.525630000000     0.999420000000     0.185450000000     0.056924   
H490     H      0.504920000000     0.979860000000     0.215720000000     0.0552095  
H491     H      0.505390000000     0.992770000000     0.126570000000     0.0990231  
H492     H      0.526830000000     0.928640000000     0.200800000000     0.0453846  
H493     H      0.044560000000     0.935700000000     0.173440000000     0.0543993  
H494     H      0.057940000000     0.928020000000     0.262140000000     0.0943289  
H495     H      0.458080000000     0.720300000000     0.167460000000     0.0213575  
H496     H      0.978040000000     0.712120000000     0.136760000000     0.0366795  
H497     H      0.059320000000     0.679300000000     0.177310000000     0.0277545  
H498     H      0.539450000000     0.693600000000     0.219510000000     0.0344453  
H499     H      0.009070000000     0.667240000000     0.158080000000     0.0433322  
H500     H      0.491190000000     0.678460000000     0.191880000000     0.0422344  
H501     H      0.543110000000     0.634230000000     0.179550000000     0.0984458  
H502     H      0.503570000000     0.734450000000     0.199320000000     0.0414869  
H503     H      0.025640000000     0.723980000000     0.164270000000     0.0546449  
H504     H      0.957860000000     0.764630000000     0.177000000000     0.0944251  
H505     H      0.096340000000     0.630710000000     0.854980000000     0.204822   
H506     H      0.099870000000     0.016060000000     0.788440000000     0.20163    
H507     H      0.510530000000     0.036580000000     0.882940000000     0.204369   
H508     H      0.503140000000     0.608010000000     0.770790000000     0.20286    
H509     H      0.148990000000     0.019700000000     0.833150000000     0.125861   
H510     H      0.110900000000     0.968120000000     0.843930000000     0.181686   
H511     H      0.520740000000     0.962770000000     0.868880000000     0.137671   
H512     H      0.452770000000     0.027060000000     0.863690000000     0.195161   
H513     H      0.452570000000     0.623790000000     0.813570000000     0.124342   
H514     H      0.494900000000     0.676010000000     0.805300000000     0.184937   
H515     H      0.078480000000     0.688540000000     0.790740000000     0.140877   
H516     H      0.142890000000     0.636640000000     0.818230000000     0.200489   
H517     H      0.455040000000     0.013730000000     0.826880000000     0.208362   
H518     H      0.523050000000     0.697590000000     0.791320000000     0.192586   
H519     H      0.169270000000     0.610530000000     0.809200000000     0.203132   
H520     H      0.082490000000     0.946340000000     0.856960000000     0.193045   
H521     H      0.483070000000     0.898880000000     0.573620000000     0.207546   
H522     H      0.541240000000     0.800340000000     0.009240000000     0.201027   
H523     H      0.113460000000     0.878810000000     0.068150000000     0.20718    
H524     H      0.041590000000     0.806010000000     0.648080000000     0.20248    
H525     H      0.516830000000     0.845770000000     0.961640000000     0.124265   
H526     H      0.579250000000     0.833890000000     0.957280000000     0.181994   
H527     H      0.141400000000     0.808270000000     0.041610000000     0.146006   
H528     H      0.152410000000     0.840280000000     0.094570000000     0.192932   
H529     H      0.078510000000     0.860530000000     0.684890000000     0.127597   
H530     H      0.013000000000     0.856940000000     0.692380000000     0.182266   
H531     H      0.441800000000     0.844120000000     0.611370000000     0.146021   
H532     H      0.438060000000     0.879000000000     0.535420000000     0.195412   
H533     H      0.155410000000     0.836140000000     0.133460000000     0.201116   
H534     H      0.976740000000     0.864920000000     0.687280000000     0.200529   
H535     H      0.433040000000     0.842310000000     0.547550000000     0.200742   
H536     H      0.616010000000     0.839750000000     0.961210000000     0.200252   
H537     H      0.280440000000     0.600980000000     0.645560000000     0.203758   
H538     H      0.371860000000     0.018370000000     0.605100000000     0.200358   
H539     H      0.254400000000     0.987040000000     0.063980000000     0.206466   
H540     H      0.306260000000     0.597680000000     0.013250000000     0.199958   
H541     H      0.373380000000     0.017480000000     0.666550000000     0.123055   
H542     H      0.350560000000     0.955660000000     0.639730000000     0.187667   
H543     H      0.315270000000     0.949260000000     0.026910000000     0.144843   
H544     H      0.278050000000     0.982300000000     0.986380000000     0.202692   
H545     H      0.235600000000     0.586620000000     0.994860000000     0.128651   
H546     H      0.255800000000     0.642580000000     0.024320000000     0.182356   
H547     H      0.320620000000     0.655450000000     0.620420000000     0.144573   
H548     H      0.324860000000     0.615490000000     0.683620000000     0.194709   
H549     H      0.242770000000     0.982370000000     0.999270000000     0.198446   
H550     H      0.264920000000     0.671010000000     0.049460000000     0.201146   
H551     H      0.356110000000     0.623080000000     0.663590000000     0.198534   
H552     H      0.337250000000     0.927700000000     0.616170000000     0.203188   
H553     H      0.435620000000     0.006350000000     0.530780000000     0.0419234  
H554     H      0.452430000000     0.969010000000     0.532740000000     0.0322838  
H555     H      0.482970000000     0.928400000000     0.950140000000     0.0387017  
H556     H      0.482500000000     0.969310000000     0.943020000000     0.0232105  
H557     H      0.422040000000     0.940560000000     0.456030000000     0.0384303  
H558     H      0.432370000000     0.927600000000     0.494270000000     0.0467587  
H559     H      0.498170000000     0.972310000000     0.493330000000     0.0983475  
H560     H      0.450310000000     0.003540000000     0.973500000000     0.041024   
H561     H      0.412860000000     0.990010000000     0.976050000000     0.0482462  
H562     H      0.411720000000     0.948930000000     0.038430000000     0.0915754  
H563     H      0.465650000000     0.709200000000     0.038800000000     0.0332758  
H564     H      0.473520000000     0.709710000000     0.555320000000     0.0402893  
H565     H      0.365590000000     0.695510000000     0.564200000000     0.0346047  
H566     H      0.359840000000     0.709690000000     0.036370000000     0.0280574  
H567     H      0.404950000000     0.706820000000     0.505380000000     0.0428279  
H568     H      0.416090000000     0.684060000000     0.069570000000     0.0469613  
H569     H      0.390920000000     0.658480000000     0.021040000000     0.0972428  
H570     H      0.418560000000     0.705750000000     0.012720000000     0.0422405  
H571     H      0.425930000000     0.681880000000     0.559520000000     0.0453334  
H572     H      0.441180000000     0.754360000000     0.510590000000     0.09667    
H573     H      0.232880000000     0.943680000000     0.704470000000     0.0252776  
H574     H      0.211500000000     0.961350000000     0.169380000000     0.0407224  
H575     H      0.139100000000     0.926100000000     0.173540000000     0.0339322  
H576     H      0.132140000000     0.961860000000     0.682950000000     0.0256478  
H577     H      0.166520000000     0.899390000000     0.128790000000     0.053477   
H578     H      0.174730000000     0.973350000000     0.651530000000     0.0536001  
H579     H      0.115620000000     0.972260000000     0.629620000000     0.0995167  
H580     H      0.180350000000     0.938230000000     0.704870000000     0.0374187  
H581     H      0.209700000000     0.890360000000     0.156940000000     0.0408322  
H582     H      0.256920000000     0.913900000000     0.143900000000     0.0965049  
H583     H      0.107210000000     0.694860000000     0.652860000000     0.0284427  
H584     H      0.099790000000     0.701810000000     0.113790000000     0.0412739  
H585     H      0.191280000000     0.659910000000     0.094610000000     0.0357068  
H586     H      0.202010000000     0.679290000000     0.633310000000     0.032262   
H587     H      0.138800000000     0.650350000000     0.110420000000     0.0452286  
H588     H      0.148660000000     0.660730000000     0.649390000000     0.0446435  
H589     H      0.180290000000     0.619130000000     0.642860000000     0.0970603  
H590     H      0.161740000000     0.716850000000     0.641060000000     0.0442445  
H591     H      0.152120000000     0.706650000000     0.101010000000     0.0459116  
H592     H      0.128860000000     0.746480000000     0.160770000000     0.0964757  
H593     H      0.382740000000     0.529590000000     0.949060000000     0.0345153  
H594     H      0.371800000000     0.033480000000     0.908520000000     0.0228661  
H595     H      0.426720000000     0.118070000000     0.903790000000     0.040038   
H596     H      0.423130000000     0.622320000000     0.945880000000     0.0270626  
H597     H      0.424570000000     0.061120000000     0.907830000000     0.0457207  
H598     H      0.426680000000     0.562860000000     0.950050000000     0.046935   
H599     H      0.473310000000     0.609660000000     0.952950000000     0.10023    
H600     H      0.377800000000     0.590330000000     0.952260000000     0.0582338  
H601     H      0.375030000000     0.089590000000     0.910100000000     0.0469137  
H602     H      0.322620000000     0.042850000000     0.924380000000     0.0986932  
H603     H      0.173580000000     0.510380000000     0.002200000000     0.0313951  
H604     H      0.136240000000     0.011480000000     0.017950000000     0.0231141  
H605     H      0.122000000000     0.099680000000     0.963800000000     0.040215   
H606     H      0.161470000000     0.606430000000     0.969000000000     0.0263495  
H607     H      0.128390000000     0.043710000000     0.964560000000     0.0510166  
H608     H      0.168030000000     0.546590000000     0.958510000000     0.0522909  
H609     H      0.172070000000     0.590580000000     0.916430000000     0.100188   
H610     H      0.174470000000     0.570780000000     0.011300000000     0.0549286  
H611     H      0.134980000000     0.067830000000     0.018420000000     0.0450907  
H612     H      0.155530000000     0.019840000000     0.068630000000     0.0996736  
H613     H      0.175060000000     0.589070000000     0.693170000000     0.0273084  
H614     H      0.169060000000     0.099730000000     0.733730000000     0.0361162  
H615     H      0.242340000000     0.031650000000     0.761410000000     0.0253274  
H616     H      0.233620000000     0.516730000000     0.723050000000     0.034856   
H617     H      0.220980000000     0.080730000000     0.752150000000     0.0418474  
H618     H      0.226550000000     0.579240000000     0.710640000000     0.0550154  
H619     H      0.288020000000     0.548850000000     0.741600000000     0.0991235  
H620     H      0.187310000000     0.535420000000     0.708070000000     0.0500353  
H621     H      0.179820000000     0.043210000000     0.748890000000     0.0547624  
H622     H      0.128830000000     0.063740000000     0.691660000000     0.101039   
H623     H      0.411040000000     0.042950000000     0.716170000000     0.0425331  
H624     H      0.420260000000     0.569420000000     0.747590000000     0.0430232  
H625     H      0.422900000000     0.619650000000     0.650310000000     0.0292193  
H626     H      0.461710000000     0.113410000000     0.641720000000     0.0218196  
H627     H      0.427440000000     0.555180000000     0.661050000000     0.0557037  
H628     H      0.464700000000     0.067400000000     0.669500000000     0.0457966  
H629     H      0.446890000000     0.090420000000     0.594240000000     0.098092   
H630     H      0.446510000000     0.104420000000     0.709960000000     0.0399583  
H631     H      0.408270000000     0.597760000000     0.698740000000     0.045062   
H632     H      0.463550000000     0.530390000000     0.708780000000     0.0953103  
H633     H      0.014840000000     0.698430000000     0.940090000000     0.02848    
H634     H      0.040840000000     0.667760000000     0.947770000000     0.0439713  
H635     H      0.635720000000     0.725780000000     0.982660000000     0.0273395  
H636     H      0.612800000000     0.757240000000     0.968580000000     0.0363357  
H637     H      0.101410000000     0.702740000000     0.935730000000     0.0447516  
H638     H      0.090140000000     0.679280000000     0.968580000000     0.0475125  
H639     H      0.089390000000     0.703910000000     0.022960000000     0.0971623  
H640     H      0.552180000000     0.722900000000     0.977460000000     0.0460734  
H641     H      0.560940000000     0.741830000000     0.941140000000     0.0403895  
H642     H      0.550310000000     0.715140000000     0.891800000000     0.0948962  
H643     H      0.579310000000     0.962960000000     0.975160000000     0.0410906  
H644     H      0.564680000000     0.956190000000     0.936470000000     0.0340366  
H645     H      0.146190000000     0.899440000000     0.970500000000     0.0363139  
H646     H      0.159380000000     0.939120000000     0.968740000000     0.0233772  
H647     H      0.639530000000     0.930390000000     0.920220000000     0.0349532  
H648     H      0.607780000000     0.917570000000     0.942000000000     0.0477903  
H649     H      0.629100000000     0.964930000000     0.005120000000     0.0936192  
H650     H      0.124600000000     0.980170000000     0.949920000000     0.0444654  
H651     H      0.109550000000     0.970420000000     0.912530000000     0.0514366  
H652     H      0.068550000000     0.014020000000     0.970130000000     0.0999403  
H653     H      0.573110000000     0.974810000000     0.705910000000     0.0404699  
H654     H      0.579950000000     0.933710000000     0.709230000000     0.0247315  
H655     H      0.974860000000     0.940290000000     0.679790000000     0.0374507  
H656     H      0.969060000000     0.981660000000     0.676810000000     0.0220283  
H657     H      0.523210000000     0.993680000000     0.688440000000     0.0571319  
H658     H      0.503390000000     0.974340000000     0.719510000000     0.0549456  
H659     H      0.500870000000     0.986960000000     0.630370000000     0.099093   
H660     H      0.524860000000     0.923000000000     0.704180000000     0.0453984  
H661     H      0.042850000000     0.938420000000     0.670500000000     0.0556056  
H662     H      0.058440000000     0.929410000000     0.758650000000     0.0943035  
H663     H      0.458610000000     0.714130000000     0.674040000000     0.0214433  
H664     H      0.977290000000     0.714100000000     0.633720000000     0.037025   
H665     H      0.057290000000     0.682390000000     0.679580000000     0.0283726  
H666     H      0.545320000000     0.688430000000     0.717810000000     0.0345728  
H667     H      0.008770000000     0.669760000000     0.655860000000     0.0435454  
H668     H      0.493940000000     0.672990000000     0.697010000000     0.0421902  
H669     H      0.545650000000     0.628220000000     0.679160000000     0.0986131  
H670     H      0.506500000000     0.728820000000     0.701920000000     0.0416561  
H671     H      0.023530000000     0.726520000000     0.663660000000     0.0541957  
H672     H      0.955160000000     0.766190000000     0.673610000000     0.0943891  
H673     H      0.595430000000     0.135690000000     0.356050000000     0.204509   
H674     H      0.599400000000     0.522090000000     0.287940000000     0.20091    
H675     H      0.009860000000     0.534870000000     0.383700000000     0.204594   
H676     H      0.003010000000     0.104680000000     0.270520000000     0.202633   
H677     H      0.648260000000     0.525020000000     0.332700000000     0.12535    
H678     H      0.610140000000     0.473480000000     0.342890000000     0.182      
H679     H      0.021260000000     0.459980000000     0.369610000000     0.137877   
H680     H      0.952120000000     0.524490000000     0.363610000000     0.195367   
H681     H      0.951930000000     0.120510000000     0.312440000000     0.124336   
H682     H      0.993910000000     0.173030000000     0.303640000000     0.184851   
H683     H      0.577850000000     0.194550000000     0.292820000000     0.140927   
H684     H      0.642050000000     0.142220000000     0.319580000000     0.200675   
H685     H      0.955370000000     0.510570000000     0.327100000000     0.208079   
H686     H      0.022100000000     0.194710000000     0.289920000000     0.192508   
H687     H      0.668830000000     0.116220000000     0.311610000000     0.20322    
H688     H      0.581640000000     0.451330000000     0.355050000000     0.192576   
H689     H      0.984910000000     0.395220000000     0.074770000000     0.207252   
H690     H      0.035670000000     0.294120000000     0.510690000000     0.200256   
H691     H      0.611890000000     0.384490000000     0.568120000000     0.211316   
H692     H      0.544730000000     0.313590000000     0.146660000000     0.20213    
H693     H      0.009830000000     0.338930000000     0.464430000000     0.123943   
H694     H      0.071740000000     0.326930000000     0.458530000000     0.181669   
H695     H      0.640710000000     0.313220000000     0.541660000000     0.145034   
H696     H      0.650260000000     0.327180000000     0.602190000000     0.200136   
H697     H      0.580860000000     0.367570000000     0.183790000000     0.127746   
H698     H      0.515430000000     0.364880000000     0.189770000000     0.182339   
H699     H      0.943160000000     0.341180000000     0.112180000000     0.146085   
H700     H      0.939110000000     0.375340000000     0.037600000000     0.194776   
H701     H      0.654280000000     0.362570000000     0.618100000000     0.199429   
H702     H      0.479600000000     0.374200000000     0.183700000000     0.200672   
H703     H      0.934170000000     0.338280000000     0.048610000000     0.200056   
H704     H      0.107830000000     0.336830000000     0.460820000000     0.200028   
H705     H      0.780490000000     0.103180000000     0.144820000000     0.20417    
H706     H      0.871620000000     0.519180000000     0.106720000000     0.200592   
H707     H      0.751280000000     0.492440000000     0.569440000000     0.208394   
H708     H      0.807790000000     0.098060000000     0.513780000000     0.200956   
H709     H      0.871500000000     0.519110000000     0.169130000000     0.122414   
H710     H      0.849990000000     0.457080000000     0.142410000000     0.187386   
H711     H      0.810080000000     0.450570000000     0.533630000000     0.145972   
H712     H      0.774490000000     0.483270000000     0.491880000000     0.202041   
H713     H      0.736860000000     0.089720000000     0.495980000000     0.127546   
H714     H      0.758760000000     0.146750000000     0.523680000000     0.183086   
H715     H      0.821610000000     0.157150000000     0.117740000000     0.145153   
H716     H      0.825210000000     0.118940000000     0.182010000000     0.194934   
H717     H      0.739360000000     0.485440000000     0.505040000000     0.198052   
H718     H      0.768370000000     0.175340000000     0.548430000000     0.20127    
H719     H      0.856480000000     0.125570000000     0.161660000000     0.198686   
H720     H      0.836760000000     0.428830000000     0.119160000000     0.202868   
H721     H      0.936160000000     0.505180000000     0.034230000000     0.0402101  
H722     H      0.952580000000     0.467160000000     0.036390000000     0.0311551  
H723     H      0.975320000000     0.421190000000     0.454160000000     0.0388969  
H724     H      0.975510000000     0.462370000000     0.446340000000     0.0240217  
H725     H      0.921850000000     0.439130000000     0.960180000000     0.0391701  
H726     H      0.932660000000     0.426350000000     0.998330000000     0.0479784  
H727     H      0.998390000000     0.469580000000     0.996830000000     0.0994238  
H728     H      0.944090000000     0.497410000000     0.476410000000     0.040401   
H729     H      0.906660000000     0.484280000000     0.480910000000     0.0491353  
H730     H      0.906030000000     0.445440000000     0.543910000000     0.0926515  
H731     H      0.958630000000     0.199200000000     0.513260000000     0.0267225  
H732     H      0.973740000000     0.206210000000     0.053850000000     0.0401188  
H733     H      0.865140000000     0.195000000000     0.060910000000     0.0346245  
H734     H      0.851190000000     0.202390000000     0.524140000000     0.0298009  
H735     H      0.905820000000     0.205480000000     0.003000000000     0.0420137  
H736     H      0.892620000000     0.238130000000     0.528950000000     0.0407153  
H737     H      0.894180000000     0.154260000000     0.516330000000     0.0978399  
H738     H      0.923190000000     0.221280000000     0.571220000000     0.0474672  
H739     H      0.925440000000     0.179410000000     0.057320000000     0.0457176  
H740     H      0.942930000000     0.251200000000     0.008270000000     0.0961935  
H741     H      0.733190000000     0.446280000000     0.208420000000     0.0250809  
H742     H      0.717210000000     0.477290000000     0.683750000000     0.0403141  
H743     H      0.632380000000     0.425390000000     0.674770000000     0.0388765  
H744     H      0.633240000000     0.470100000000     0.183130000000     0.0253397  
H745     H      0.673420000000     0.434030000000     0.630860000000     0.0498762  
H746     H      0.677570000000     0.479050000000     0.153940000000     0.0553081  
H747     H      0.618630000000     0.479430000000     0.129310000000     0.0999758  
H748     H      0.679960000000     0.445110000000     0.207960000000     0.0373033  
H749     H      0.694360000000     0.409800000000     0.674650000000     0.0427731  
H750     H      0.748400000000     0.422430000000     0.651320000000     0.0965712  
H751     H      0.609740000000     0.201610000000     0.151770000000     0.0287745  
H752     H      0.601090000000     0.208330000000     0.613420000000     0.041437   
H753     H      0.694290000000     0.168410000000     0.593910000000     0.0353702  
H754     H      0.704180000000     0.181670000000     0.131840000000     0.0324125  
H755     H      0.641810000000     0.158810000000     0.608360000000     0.0451899  
H756     H      0.650250000000     0.165300000000     0.148420000000     0.0445014  
H757     H      0.680220000000     0.122130000000     0.140950000000     0.0969222  
H758     H      0.665100000000     0.220820000000     0.140600000000     0.0441231  
H759     H      0.653230000000     0.215630000000     0.600830000000     0.0452461  
H760     H      0.628290000000     0.252800000000     0.661830000000     0.0972664  
H761     H      0.882260000000     0.027050000000     0.452120000000     0.0347838  
H762     H      0.870810000000     0.529080000000     0.411560000000     0.0224869  
H763     H      0.924820000000     0.614330000000     0.402710000000     0.0400605  
H764     H      0.921220000000     0.120090000000     0.444620000000     0.0261149  
H765     H      0.923260000000     0.557640000000     0.408800000000     0.0450375  
H766     H      0.925890000000     0.060760000000     0.450920000000     0.0469902  
H767     H      0.971460000000     0.107960000000     0.452450000000     0.0994357  
H768     H      0.876700000000     0.087740000000     0.452790000000     0.0569065  
H769     H      0.873330000000     0.585290000000     0.410730000000     0.0463567  
H770     H      0.821660000000     0.539220000000     0.427380000000     0.09812    
H771     H      0.672150000000     0.016570000000     0.506680000000     0.0335735  
H772     H      0.634800000000     0.518660000000     0.522500000000     0.0243113  
H773     H      0.620040000000     0.603900000000     0.464580000000     0.0396414  
H774     H      0.659430000000     0.111580000000     0.469700000000     0.0254085  
H775     H      0.627360000000     0.548200000000     0.467610000000     0.0503434  
H776     H      0.667050000000     0.051430000000     0.461340000000     0.0523825  
H777     H      0.670700000000     0.093540000000     0.417810000000     0.0997385  
H778     H      0.673520000000     0.077290000000     0.513080000000     0.0546327  
H779     H      0.633940000000     0.574990000000     0.520470000000     0.0448353  
H780     H      0.654150000000     0.529740000000     0.572750000000     0.0988778  
H781     H      0.675240000000     0.096730000000     0.194200000000     0.0266791  
H782     H      0.669080000000     0.606820000000     0.235000000000     0.0361087  
H783     H      0.741540000000     0.538360000000     0.262380000000     0.0251468  
H784     H      0.732440000000     0.022680000000     0.224410000000     0.0350705  
H785     H      0.721450000000     0.587780000000     0.251710000000     0.0417128  
H786     H      0.726660000000     0.084810000000     0.210130000000     0.0547047  
H787     H      0.787510000000     0.054210000000     0.242060000000     0.0992163  
H788     H      0.686480000000     0.042410000000     0.208760000000     0.0505114  
H789     H      0.679640000000     0.550520000000     0.249740000000     0.0548417  
H790     H      0.628850000000     0.571890000000     0.192050000000     0.100736   
H791     H      0.912020000000     0.538930000000     0.215330000000     0.0409627  
H792     H      0.920470000000     0.064900000000     0.247350000000     0.0434418  
H793     H      0.924600000000     0.117820000000     0.151640000000     0.0296325  
H794     H      0.963100000000     0.610730000000     0.142570000000     0.0218383  
H795     H      0.927810000000     0.052820000000     0.160520000000     0.0546108  
H796     H      0.965180000000     0.564250000000     0.169500000000     0.0452035  
H797     H      0.947500000000     0.588910000000     0.094780000000     0.0977125  
H798     H      0.947050000000     0.600830000000     0.210640000000     0.0402642  
H799     H      0.908930000000     0.094330000000     0.199220000000     0.0473027  
H800     H      0.964640000000     0.026940000000     0.208610000000     0.0953904  
H801     H      0.514210000000     0.201990000000     0.442050000000     0.0281861  
H802     H      0.540710000000     0.171600000000     0.449070000000     0.0435371  
H803     H      0.132330000000     0.219660000000     0.483470000000     0.0266486  
H804     H      0.110660000000     0.252180000000     0.470030000000     0.0370518  
H805     H      0.600530000000     0.207280000000     0.436220000000     0.044385   
H806     H      0.590230000000     0.183750000000     0.469400000000     0.0464565  
H807     H      0.589710000000     0.208670000000     0.523460000000     0.0975031  
H808     H      0.048720000000     0.221380000000     0.476610000000     0.0444069  
H809     H      0.059060000000     0.240080000000     0.440600000000     0.0395975  
H810     H      0.047000000000     0.213800000000     0.390480000000     0.0946385  
H811     H      0.076130000000     0.462590000000     0.477760000000     0.0389235  
H812     H      0.062110000000     0.455800000000     0.438810000000     0.0337916  
H813     H      0.645140000000     0.404560000000     0.470740000000     0.0356344  
H814     H      0.657610000000     0.444450000000     0.468400000000     0.0229355  
H815     H      0.136150000000     0.428190000000     0.422900000000     0.0347728  
H816     H      0.103140000000     0.416000000000     0.442900000000     0.046483   
H817     H      0.123470000000     0.459550000000     0.508430000000     0.0966687  
H818     H      0.622420000000     0.484470000000     0.448690000000     0.04521    
H819     H      0.607630000000     0.473860000000     0.411410000000     0.0517887  
H820     H      0.566190000000     0.517380000000     0.469380000000     0.0992746  
H821     H      0.074400000000     0.471070000000     0.208280000000     0.0410759  
H822     H      0.081420000000     0.430060000000     0.212290000000     0.0244593  
H823     H      0.476940000000     0.449190000000     0.174650000000     0.0370827  
H824     H      0.472060000000     0.490290000000     0.171200000000     0.022352   
H825     H      0.024710000000     0.489560000000     0.190610000000     0.0579845  
H826     H      0.004240000000     0.470190000000     0.221180000000     0.0549037  
H827     H      0.004040000000     0.482750000000     0.132030000000     0.0991267  
H828     H      0.026360000000     0.419030000000     0.207020000000     0.0448597  
H829     H      0.545660000000     0.446030000000     0.167980000000     0.0555213  
H830     H      0.558130000000     0.435900000000     0.256490000000     0.0942487  
H831     H      0.958540000000     0.210190000000     0.173910000000     0.0214195  
H832     H      0.480460000000     0.222170000000     0.132090000000     0.0367841  
H833     H      0.558450000000     0.190030000000     0.182370000000     0.0286807  
H834     H      0.045920000000     0.184680000000     0.216830000000     0.0344625  
H835     H      0.511340000000     0.177820000000     0.155170000000     0.0438277  
H836     H      0.994040000000     0.169110000000     0.197310000000     0.0422955  
H837     H      0.045890000000     0.123990000000     0.179010000000     0.0986072  
H838     H      0.006650000000     0.224840000000     0.201500000000     0.0415351  
H839     H      0.525720000000     0.234310000000     0.163980000000     0.0537068  
H840     H      0.457780000000     0.274770000000     0.171110000000     0.094042   
H841     H      0.599260000000     0.131330000000     0.855120000000     0.204999   
H842     H      0.599700000000     0.516530000000     0.789040000000     0.201043   
H843     H      0.010060000000     0.533380000000     0.882250000000     0.205293   
H844     H      0.001140000000     0.104980000000     0.770350000000     0.202937   
H845     H      0.648990000000     0.518870000000     0.833530000000     0.125711   
H846     H      0.609000000000     0.467740000000     0.844330000000     0.182243   
H847     H      0.023090000000     0.458050000000     0.865630000000     0.138301   
H848     H      0.951940000000     0.522420000000     0.862220000000     0.195971   
H849     H      0.950070000000     0.119150000000     0.813260000000     0.124485   
H850     H      0.991090000000     0.172390000000     0.803930000000     0.184562   
H851     H      0.582410000000     0.189790000000     0.791000000000     0.140864   
H852     H      0.645790000000     0.135850000000     0.817840000000     0.200659   
H853     H      0.955990000000     0.508740000000     0.825710000000     0.20826    
H854     H      0.019040000000     0.195260000000     0.791710000000     0.192475   
H855     H      0.671950000000     0.108840000000     0.811060000000     0.203082   
H856     H      0.579960000000     0.447320000000     0.858050000000     0.193526   
H857     H      0.983510000000     0.397840000000     0.572650000000     0.207848   
H858     H      0.035010000000     0.290730000000     0.012060000000     0.199644   
H859     H      0.617510000000     0.388730000000     0.069070000000     0.211541   
H860     H      0.543310000000     0.308510000000     0.649050000000     0.202185   
H861     H      0.007910000000     0.335160000000     0.966240000000     0.124319   
H862     H      0.069490000000     0.322360000000     0.958820000000     0.181866   
H863     H      0.646060000000     0.315840000000     0.042790000000     0.144714   
H864     H      0.653930000000     0.332900000000     0.103000000000     0.200731   
H865     H      0.580370000000     0.363440000000     0.684360000000     0.127465   
H866     H      0.515100000000     0.359080000000     0.693320000000     0.182317   
H867     H      0.941140000000     0.343050000000     0.608620000000     0.145884   
H868     H      0.939030000000     0.378620000000     0.533200000000     0.195399   
H869     H      0.657460000000     0.365510000000     0.124170000000     0.200544   
H870     H      0.479060000000     0.368400000000     0.688820000000     0.200912   
H871     H      0.933660000000     0.341750000000     0.544590000000     0.200626   
H872     H      0.105600000000     0.332420000000     0.959750000000     0.200578   
H873     H      0.780900000000     0.101040000000     0.644480000000     0.203869   
H874     H      0.871970000000     0.518360000000     0.603410000000     0.200527   
H875     H      0.750970000000     0.492150000000     0.073520000000     0.20789    
H876     H      0.807570000000     0.095900000000     0.014400000000     0.200181   
H877     H      0.872630000000     0.516410000000     0.665150000000     0.122774   
H878     H      0.850240000000     0.455260000000     0.637270000000     0.18784    
H879     H      0.809810000000     0.448970000000     0.039320000000     0.145243   
H880     H      0.774320000000     0.480410000000     0.996300000000     0.205677   
H881     H      0.737110000000     0.086960000000     0.996380000000     0.128055   
H882     H      0.758400000000     0.144660000000     0.022570000000     0.182302   
H883     H      0.822070000000     0.155810000000     0.619120000000     0.144979   
H884     H      0.825370000000     0.114950000000     0.682770000000     0.195016   
H885     H      0.739260000000     0.482900000000     0.009590000000     0.198425   
H886     H      0.768260000000     0.174150000000     0.046110000000     0.200778   
H887     H      0.856350000000     0.122890000000     0.662410000000     0.198277   
H888     H      0.836950000000     0.427680000000     0.613260000000     0.20307    
H889     H      0.936150000000     0.507010000000     0.529920000000     0.0406046  
H890     H      0.952980000000     0.469700000000     0.532300000000     0.0320099  
H891     H      0.972440000000     0.418240000000     0.957260000000     0.0398142  
H892     H      0.972970000000     0.458960000000     0.949140000000     0.0243265  
H893     H      0.924530000000     0.441220000000     0.454850000000     0.0385475  
H894     H      0.934080000000     0.428270000000     0.493310000000     0.0465904  
H895     H      0.999910000000     0.472510000000     0.494390000000     0.0987184  
H896     H      0.943850000000     0.495060000000     0.980880000000     0.0404982  
H897     H      0.906110000000     0.483180000000     0.985790000000     0.0501748  
H898     H      0.905920000000     0.444400000000     0.050140000000     0.0924093  
H899     H      0.959800000000     0.196070000000     0.015680000000     0.0262084  
H900     H      0.974120000000     0.208820000000     0.550870000000     0.0404405  
H901     H      0.866120000000     0.196280000000     0.562520000000     0.0343392  
H902     H      0.851880000000     0.201040000000     0.021820000000     0.0290944  
H903     H      0.904440000000     0.207700000000     0.503000000000     0.0427273  
H904     H      0.893610000000     0.236090000000     0.028580000000     0.0404054  
H905     H      0.893920000000     0.152310000000     0.015370000000     0.0971422  
H906     H      0.922240000000     0.218340000000     0.072040000000     0.0470888  
H907     H      0.926250000000     0.182230000000     0.556810000000     0.0454361  
H908     H      0.941970000000     0.254320000000     0.506880000000     0.0966729  
H909     H      0.732500000000     0.443160000000     0.701700000000     0.0254968  
H910     H      0.719740000000     0.481230000000     0.190360000000     0.0401391  
H911     H      0.633860000000     0.428660000000     0.176810000000     0.0384494  
H912     H      0.633890000000     0.467020000000     0.679520000000     0.0257996  
H913     H      0.677250000000     0.440930000000     0.136320000000     0.0516575  
H914     H      0.676430000000     0.472750000000     0.646530000000     0.0550209  
H915     H      0.615110000000     0.475190000000     0.627260000000     0.0999041  
H916     H      0.679970000000     0.437890000000     0.701740000000     0.0377775  
H917     H      0.693370000000     0.415090000000     0.182300000000     0.0425438  
H918     H      0.749240000000     0.425130000000     0.158840000000     0.096492   
H919     H      0.609280000000     0.197930000000     0.653490000000     0.0284947  
H920     H      0.602400000000     0.212360000000     0.111630000000     0.0416526  
H921     H      0.694540000000     0.169940000000     0.092780000000     0.0352555  
H922     H      0.703650000000     0.179990000000     0.633120000000     0.0323018  
H923     H      0.641900000000     0.161820000000     0.107230000000     0.0449629  
H924     H      0.650150000000     0.162540000000     0.649540000000     0.0446555  
H925     H      0.680870000000     0.119990000000     0.641830000000     0.0969893  
H926     H      0.663990000000     0.218410000000     0.641380000000     0.0440657  
H927     H      0.654850000000     0.218450000000     0.099880000000     0.0452323  
H928     H      0.629820000000     0.256040000000     0.160640000000     0.097273   
H929     H      0.882290000000     0.023870000000     0.954820000000     0.0349957  
H930     H      0.870730000000     0.524730000000     0.914260000000     0.0225301  
H931     H      0.923860000000     0.610500000000     0.903110000000     0.0404602  
H932     H      0.920670000000     0.116760000000     0.944970000000     0.0268318  
H933     H      0.922750000000     0.553880000000     0.909970000000     0.044708   
H934     H      0.925840000000     0.057580000000     0.952010000000     0.0472224  
H935     H      0.970990000000     0.104510000000     0.952590000000     0.0999407  
H936     H      0.876470000000     0.084380000000     0.954050000000     0.057466   
H937     H      0.872630000000     0.581030000000     0.912100000000     0.0464625  
H938     H      0.821550000000     0.534940000000     0.929900000000     0.0983483  
H939     H      0.671370000000     0.014600000000     0.009800000000     0.0321782  
H940     H      0.634060000000     0.519260000000     0.025250000000     0.0244305  
H941     H      0.623840000000     0.602600000000     0.963680000000     0.0403558  
H942     H      0.663580000000     0.108310000000     0.968410000000     0.0263249  
H943     H      0.628480000000     0.546640000000     0.968880000000     0.0504636  
H944     H      0.668330000000     0.047690000000     0.962950000000     0.0524258  
H945     H      0.673740000000     0.087940000000     0.917250000000     0.100031   
H946     H      0.675370000000     0.075500000000     0.013640000000     0.0550572  
H947     H      0.635690000000     0.575320000000     0.020590000000     0.0449549  
H948     H      0.653750000000     0.530630000000     0.075140000000     0.0993288  
H949     H      0.675700000000     0.089100000000     0.693110000000     0.0273385  
H950     H      0.670190000000     0.599390000000     0.733940000000     0.0365252  
H951     H      0.742790000000     0.529710000000     0.759590000000     0.0249689  
H952     H      0.733800000000     0.015880000000     0.720920000000     0.0352109  
H953     H      0.722230000000     0.579460000000     0.751400000000     0.0418996  
H954     H      0.727130000000     0.078460000000     0.709710000000     0.0548899  
H955     H      0.788530000000     0.047180000000     0.739960000000     0.0992921  
H956     H      0.687350000000     0.035100000000     0.707420000000     0.050044   
H957     H      0.680490000000     0.542700000000     0.748470000000     0.0545083  
H958     H      0.629240000000     0.564210000000     0.691900000000     0.100887   
H959     H      0.910840000000     0.539940000000     0.714410000000     0.0425393  
H960     H      0.919580000000     0.065910000000     0.746330000000     0.0431365  
H961     H      0.923910000000     0.118150000000     0.650230000000     0.0292396  
H962     H      0.962520000000     0.611480000000     0.641610000000     0.0218551  
H963     H      0.927740000000     0.053250000000     0.659570000000     0.055821   
H964     H      0.964870000000     0.565170000000     0.668820000000     0.0456305  
H965     H      0.947480000000     0.589680000000     0.593640000000     0.0980201  
H966     H      0.946210000000     0.601610000000     0.709650000000     0.0398316  
H967     H      0.908220000000     0.095080000000     0.697840000000     0.0457692  
H968     H      0.963490000000     0.027670000000     0.707540000000     0.0955545  
H969     H      0.521130000000     0.198590000000     0.940750000000     0.0301852  
H970     H      0.549880000000     0.170750000000     0.948370000000     0.0439072  
H971     H      0.131070000000     0.214830000000     0.983600000000     0.0272649  
H972     H      0.110180000000     0.248040000000     0.970590000000     0.0378489  
H973     H      0.607150000000     0.210340000000     0.935170000000     0.0439085  
H974     H      0.597820000000     0.187040000000     0.968810000000     0.0461038  
H975     H      0.592830000000     0.213370000000     0.021340000000     0.0968914  
H976     H      0.047360000000     0.218500000000     0.978110000000     0.0452307  
H977     H      0.057740000000     0.237740000000     0.942400000000     0.0399189  
H978     H      0.043790000000     0.212820000000     0.891730000000     0.0946354  
H979     H      0.075500000000     0.460320000000     0.975020000000     0.0392347  
H980     H      0.061360000000     0.454380000000     0.935960000000     0.0338892  
H981     H      0.654370000000     0.408990000000     0.971910000000     0.0360555  
H982     H      0.664830000000     0.449360000000     0.967450000000     0.0234154  
H983     H      0.134330000000     0.424590000000     0.919810000000     0.034854   
H984     H      0.101100000000     0.413340000000     0.939950000000     0.0465754  
H985     H      0.122520000000     0.455730000000     0.005240000000     0.094573   
H986     H      0.626440000000     0.486500000000     0.947920000000     0.0461697  
H987     H      0.611120000000     0.473740000000     0.911580000000     0.0517635  
H988     H      0.569650000000     0.516200000000     0.970590000000     0.100208   
H989     H      0.073140000000     0.473420000000     0.705050000000     0.0407771  
H990     H      0.080620000000     0.432420000000     0.708240000000     0.0253559  
H991     H      0.474400000000     0.443160000000     0.679470000000     0.0370527  
H992     H      0.469110000000     0.484230000000     0.676200000000     0.0222378  
H993     H      0.022650000000     0.491590000000     0.689060000000     0.0579912  
H994     H      0.003330000000     0.471500000000     0.719980000000     0.0550332  
H995     H      0.000660000000     0.485020000000     0.631050000000     0.0991302  
H996     H      0.025650000000     0.420830000000     0.704200000000     0.0447648  
H997     H      0.542860000000     0.440270000000     0.670800000000     0.0553879  
H998     H      0.556770000000     0.431070000000     0.759270000000     0.0944001  
H999     H      0.956250000000     0.211750000000     0.669850000000     0.0215569  
H1000    H      0.478300000000     0.216190000000     0.636940000000     0.036715   
H1001    H      0.559630000000     0.183600000000     0.678520000000     0.0280618  
H1002    H      0.040690000000     0.186600000000     0.717880000000     0.0345438  
H1003    H      0.509730000000     0.171540000000     0.658020000000     0.0434735  
H1004    H      0.990850000000     0.170630000000     0.693730000000     0.0422244  
H1005    H      0.043110000000     0.126620000000     0.678840000000     0.0985918  
H1006    H      0.002820000000     0.226640000000     0.699880000000     0.0415662  
H1007    H      0.525760000000     0.228240000000     0.664750000000     0.0546582  
H1008    H      0.457740000000     0.268530000000     0.677230000000     0.0943968  
H1009    H      0.595390000000     0.635730000000     0.356080000000     0.204568   
H1010    H      0.599410000000     0.022050000000     0.287900000000     0.201008   
H1011    H      0.009890000000     0.034830000000     0.383690000000     0.2048     
H1012    H      0.003000000000     0.604710000000     0.270530000000     0.202975   
H1013    H      0.648290000000     0.024980000000     0.332650000000     0.125698   
H1014    H      0.610170000000     0.973440000000     0.342860000000     0.18183    
H1015    H      0.021280000000     0.959940000000     0.369580000000     0.137794   
H1016    H      0.952140000000     0.024470000000     0.363620000000     0.195585   
H1017    H      0.951900000000     0.620530000000     0.312440000000     0.124421   
H1018    H      0.993880000000     0.673050000000     0.303630000000     0.184833   
H1019    H      0.577830000000     0.694590000000     0.292830000000     0.140796   
H1020    H      0.642020000000     0.642270000000     0.319610000000     0.200545   
H1021    H      0.955380000000     0.010550000000     0.327110000000     0.208353   
H1022    H      0.022070000000     0.694750000000     0.289930000000     0.192404   
H1023    H      0.668800000000     0.616260000000     0.311660000000     0.20317    
H1024    H      0.581670000000     0.951300000000     0.355010000000     0.192847   
H1025    H      0.984910000000     0.895220000000     0.074750000000     0.20721    
H1026    H      0.035650000000     0.794080000000     0.510700000000     0.200288   
H1027    H      0.611900000000     0.884430000000     0.568100000000     0.211044   
H1028    H      0.544710000000     0.813590000000     0.146660000000     0.202267   
H1029    H      0.009810000000     0.838880000000     0.464430000000     0.123906   
H1030    H      0.071720000000     0.826850000000     0.458540000000     0.181574   
H1031    H      0.640700000000     0.813150000000     0.541670000000     0.145006   
H1032    H      0.650240000000     0.827090000000     0.602220000000     0.200404   
H1033    H      0.580840000000     0.867570000000     0.183790000000     0.127745   
H1034    H      0.515410000000     0.864880000000     0.189760000000     0.182467   
H1035    H      0.943150000000     0.841190000000     0.112160000000     0.146088   
H1036    H      0.939110000000     0.875340000000     0.037580000000     0.194585   
H1037    H      0.654270000000     0.862520000000     0.618030000000     0.199661   
H1038    H      0.479590000000     0.874230000000     0.183680000000     0.200619   
H1039    H      0.934160000000     0.838280000000     0.048580000000     0.200038   
H1040    H      0.107800000000     0.836760000000     0.460820000000     0.200157   
H1041    H      0.780470000000     0.603180000000     0.144850000000     0.204078   
H1042    H      0.871640000000     0.019170000000     0.106710000000     0.20087    
H1043    H      0.751310000000     0.992470000000     0.569440000000     0.207118   
H1044    H      0.807750000000     0.598060000000     0.513800000000     0.201007   
H1045    H      0.871500000000     0.019100000000     0.169130000000     0.122708   
H1046    H      0.850000000000     0.957080000000     0.142400000000     0.187233   
H1047    H      0.810110000000     0.950580000000     0.533650000000     0.145715   
H1048    H      0.774520000000     0.983280000000     0.491890000000     0.202096   
H1049    H      0.736830000000     0.589710000000     0.496000000000     0.127655   
H1050    H      0.758720000000     0.646740000000     0.523720000000     0.183468   
H1051    H      0.821590000000     0.657160000000     0.117770000000     0.14499    
H1052    H      0.825200000000     0.618940000000     0.182040000000     0.194935   
H1053    H      0.739400000000     0.985450000000     0.505050000000     0.197889   
H1054    H      0.768330000000     0.675320000000     0.548480000000     0.201279   
H1055    H      0.856460000000     0.625570000000     0.161680000000     0.19867    
H1056    H      0.836770000000     0.928830000000     0.119160000000     0.202851   
H1057    H      0.936190000000     0.005160000000     0.034220000000     0.0415155  
H1058    H      0.952600000000     0.967140000000     0.036370000000     0.0314013  
H1059    H      0.975300000000     0.921160000000     0.454160000000     0.0387927  
H1060    H      0.975500000000     0.962340000000     0.446330000000     0.0237336  
H1061    H      0.921850000000     0.939120000000     0.960160000000     0.0390647  
H1062    H      0.932670000000     0.926330000000     0.998310000000     0.0480514  
H1063    H      0.998400000000     0.969560000000     0.996790000000     0.0991533  
H1064    H      0.944100000000     0.997390000000     0.476410000000     0.0398092  
H1065    H      0.906670000000     0.984270000000     0.480920000000     0.0486142  
H1066    H      0.906050000000     0.945440000000     0.543930000000     0.092531   
H1067    H      0.958580000000     0.699180000000     0.513290000000     0.0266788  
H1068    H      0.973720000000     0.706200000000     0.053870000000     0.0400446  
H1069    H      0.865120000000     0.695010000000     0.060930000000     0.0346292  
H1070    H      0.851140000000     0.702380000000     0.524180000000     0.0298301  
H1071    H      0.905790000000     0.705490000000     0.003020000000     0.0420111  
H1072    H      0.892570000000     0.738120000000     0.529000000000     0.0407308  
H1073    H      0.894130000000     0.654260000000     0.516350000000     0.0977791  
H1074    H      0.923150000000     0.721270000000     0.571260000000     0.0474803  
H1075    H      0.925410000000     0.679420000000     0.057340000000     0.0457494  
H1076    H      0.942910000000     0.751190000000     0.008280000000     0.0961814  
H1077    H      0.733200000000     0.946290000000     0.208400000000     0.0248697  
H1078    H      0.717250000000     0.977360000000     0.683780000000     0.0399211  
H1079    H      0.632440000000     0.925300000000     0.674720000000     0.0388855  
H1080    H      0.633240000000     0.970080000000     0.183110000000     0.0251255  
H1081    H      0.673510000000     0.934160000000     0.630880000000     0.049858   
H1082    H      0.677580000000     0.979040000000     0.153920000000     0.0550194  
H1083    H      0.618640000000     0.979410000000     0.129290000000     0.0997065  
H1084    H      0.679970000000     0.945110000000     0.207940000000     0.0371442  
H1085    H      0.694370000000     0.909880000000     0.674710000000     0.0428188  
H1086    H      0.748420000000     0.922480000000     0.651350000000     0.0965362  
H1087    H      0.609720000000     0.701600000000     0.151790000000     0.0287728  
H1088    H      0.601040000000     0.708280000000     0.613450000000     0.0414362  
H1089    H      0.694240000000     0.668360000000     0.593940000000     0.0354027  
H1090    H      0.704160000000     0.681670000000     0.131870000000     0.0324147  
H1091    H      0.641760000000     0.658760000000     0.608400000000     0.0451569  
H1092    H      0.650230000000     0.665300000000     0.148450000000     0.0445103  
H1093    H      0.680210000000     0.622130000000     0.140990000000     0.0969025  
H1094    H      0.665070000000     0.720820000000     0.140620000000     0.0441503  
H1095    H      0.653180000000     0.715570000000     0.600850000000     0.0452709  
H1096    H      0.628250000000     0.752750000000     0.661860000000     0.097205   
H1097    H      0.882220000000     0.527060000000     0.452120000000     0.0344514  
H1098    H      0.870850000000     0.029080000000     0.411550000000     0.0227364  
H1099    H      0.924870000000     0.114320000000     0.402730000000     0.0400815  
H1100    H      0.921170000000     0.620110000000     0.444610000000     0.0260967  
H1101    H      0.923300000000     0.057620000000     0.408810000000     0.0451702  
H1102    H      0.925850000000     0.560780000000     0.450920000000     0.0467934  
H1103    H      0.971410000000     0.607980000000     0.452450000000     0.0993943  
H1104    H      0.876650000000     0.587750000000     0.452790000000     0.0569202  
H1105    H      0.873380000000     0.085280000000     0.410730000000     0.0463633  
H1106    H      0.821700000000     0.039210000000     0.427380000000     0.0983618  
H1107    H      0.672110000000     0.516570000000     0.506690000000     0.0332245  
H1108    H      0.634840000000     0.018660000000     0.522490000000     0.0246909  
H1109    H      0.620100000000     0.103890000000     0.464540000000     0.0396378  
H1110    H      0.659360000000     0.611610000000     0.469750000000     0.0254172  
H1111    H      0.627420000000     0.048180000000     0.467580000000     0.0505322  
H1112    H      0.667000000000     0.551460000000     0.461360000000     0.0522035  
H1113    H      0.670650000000     0.593580000000     0.417860000000     0.0996896  
H1114    H      0.673480000000     0.577290000000     0.513110000000     0.0546217  
H1115    H      0.633980000000     0.074990000000     0.520430000000     0.0449155  
H1116    H      0.654190000000     0.029760000000     0.572740000000     0.099188   
H1117    H      0.675250000000     0.596760000000     0.194260000000     0.0266727  
H1118    H      0.669060000000     0.106800000000     0.234950000000     0.0361008  
H1119    H      0.741540000000     0.038370000000     0.262350000000     0.0253536  
H1120    H      0.732430000000     0.522680000000     0.224440000000     0.0347084  
H1121    H      0.721430000000     0.087770000000     0.251670000000     0.0417701  
H1122    H      0.726660000000     0.584820000000     0.210170000000     0.0546857  
H1123    H      0.787510000000     0.554200000000     0.242090000000     0.0990738  
H1124    H      0.686470000000     0.542430000000     0.208810000000     0.0502543  
H1125    H      0.679640000000     0.050490000000     0.249690000000     0.0550052  
H1126    H      0.628840000000     0.071850000000     0.192020000000     0.100975   
H1127    H      0.912010000000     0.038930000000     0.215320000000     0.0411468  
H1128    H      0.920470000000     0.564910000000     0.247360000000     0.0433747  
H1129    H      0.924580000000     0.617830000000     0.151640000000     0.0296677  
H1130    H      0.963120000000     0.110710000000     0.142580000000     0.0218398  
H1131    H      0.927810000000     0.552840000000     0.160520000000     0.0544567  
H1132    H      0.965190000000     0.064220000000     0.169490000000     0.0453828  
H1133    H      0.947530000000     0.088890000000     0.094780000000     0.0977592  
H1134    H      0.947100000000     0.100800000000     0.210640000000     0.0402252  
H1135    H      0.908890000000     0.594320000000     0.199210000000     0.0473383  
H1136    H      0.964640000000     0.526950000000     0.208620000000     0.095158   
H1137    H      0.514140000000     0.702070000000     0.442050000000     0.0282017  
H1138    H      0.540590000000     0.671640000000     0.449070000000     0.0435622  
H1139    H      0.132280000000     0.719550000000     0.483500000000     0.0266203  
H1140    H      0.110660000000     0.752110000000     0.470070000000     0.0370378  
H1141    H      0.600470000000     0.707220000000     0.436240000000     0.0444367  
H1142    H      0.590130000000     0.683710000000     0.469410000000     0.0464916  
H1143    H      0.589660000000     0.708610000000     0.523480000000     0.0975433  
H1144    H      0.048680000000     0.721400000000     0.476630000000     0.044386   
H1145    H      0.059040000000     0.740090000000     0.440630000000     0.0395933  
H1146    H      0.046930000000     0.713840000000     0.390490000000     0.094585   
H1147    H      0.076140000000     0.962540000000     0.477730000000     0.0390024  
H1148    H      0.062120000000     0.955750000000     0.438780000000     0.0338331  
H1149    H      0.645140000000     0.904470000000     0.470710000000     0.0355746  
H1150    H      0.657630000000     0.944360000000     0.468370000000     0.0227253  
H1151    H      0.136150000000     0.928110000000     0.422870000000     0.0347208  
H1152    H      0.103130000000     0.915930000000     0.442880000000     0.0465329  
H1153    H      0.123480000000     0.959480000000     0.508400000000     0.0963705  
H1154    H      0.622460000000     0.984390000000     0.448660000000     0.0446739  
H1155    H      0.607660000000     0.973800000000     0.411380000000     0.0513151  
H1156    H      0.566240000000     0.017330000000     0.469360000000     0.0995414  
H1157    H      0.074400000000     0.971030000000     0.208260000000     0.0407405  
H1158    H      0.081400000000     0.930020000000     0.212270000000     0.0244005  
H1159    H      0.476940000000     0.949200000000     0.174630000000     0.0369854  
H1160    H      0.472080000000     0.990310000000     0.171180000000     0.0219556  
H1161    H      0.024730000000     0.989550000000     0.190580000000     0.0575721  
H1162    H      0.004240000000     0.970190000000     0.221150000000     0.0545518  
H1163    H      0.004060000000     0.982750000000     0.131990000000     0.0988785  
H1164    H      0.026330000000     0.919020000000     0.206990000000     0.0448801  
H1165    H      0.545660000000     0.946010000000     0.167960000000     0.0555185  
H1166    H      0.558130000000     0.935870000000     0.256470000000     0.0941699  
H1167    H      0.958520000000     0.710210000000     0.173930000000     0.021392   
H1168    H      0.480430000000     0.722170000000     0.132110000000     0.0367809  
H1169    H      0.558440000000     0.690060000000     0.182360000000     0.0286356  
H1170    H      0.045910000000     0.684710000000     0.216840000000     0.0344844  
H1171    H      0.511320000000     0.677830000000     0.155190000000     0.0438087  
H1172    H      0.994030000000     0.669140000000     0.197330000000     0.0423102  
H1173    H      0.045890000000     0.624020000000     0.179020000000     0.0984956  
H1174    H      0.006620000000     0.724870000000     0.201510000000     0.0415538  
H1175    H      0.525700000000     0.734330000000     0.163980000000     0.0536824  
H1176    H      0.457760000000     0.774790000000     0.171110000000     0.0940359  
H1177    H      0.599230000000     0.631340000000     0.855150000000     0.204925   
H1178    H      0.599730000000     0.016520000000     0.789020000000     0.201469   
H1179    H      0.010100000000     0.033360000000     0.882240000000     0.20531    
H1180    H      0.001120000000     0.605000000000     0.770360000000     0.202769   
H1181    H      0.649030000000     0.018860000000     0.833490000000     0.126078   
H1182    H      0.609050000000     0.967730000000     0.844300000000     0.181951   
H1183    H      0.023130000000     0.958020000000     0.865610000000     0.138111   
H1184    H      0.951980000000     0.022410000000     0.862230000000     0.196046   
H1185    H      0.950050000000     0.619170000000     0.813260000000     0.124437   
H1186    H      0.991070000000     0.672410000000     0.803940000000     0.184632   
H1187    H      0.582400000000     0.689800000000     0.791020000000     0.140934   
H1188    H      0.645760000000     0.635860000000     0.817870000000     0.200397   
H1189    H      0.956020000000     0.008720000000     0.825720000000     0.208672   
H1190    H      0.019030000000     0.695270000000     0.791720000000     0.192611   
H1191    H      0.671930000000     0.608850000000     0.811110000000     0.20286    
H1192    H      0.580020000000     0.947310000000     0.858030000000     0.193572   
H1193    H      0.983510000000     0.897830000000     0.572640000000     0.207616   
H1194    H      0.035000000000     0.790710000000     0.012060000000     0.199811   
H1195    H      0.617510000000     0.888700000000     0.069060000000     0.211384   
H1196    H      0.543290000000     0.808480000000     0.649060000000     0.201994   
H1197    H      0.007910000000     0.835130000000     0.966230000000     0.124309   
H1198    H      0.069490000000     0.822310000000     0.958820000000     0.18176    
H1199    H      0.646050000000     0.815810000000     0.042800000000     0.144785   
H1200    H      0.653910000000     0.832870000000     0.103020000000     0.200774   
H1201    H      0.580380000000     0.863400000000     0.684360000000     0.127416   
H1202    H      0.515100000000     0.859070000000     0.693320000000     0.182213   
H1203    H      0.941120000000     0.843060000000     0.608630000000     0.145862   
H1204    H      0.939020000000     0.878600000000     0.533200000000     0.195413   
H1205    H      0.657450000000     0.865500000000     0.124160000000     0.200598   
H1206    H      0.479060000000     0.868410000000     0.688820000000     0.200488   
H1207    H      0.933650000000     0.841740000000     0.544600000000     0.200703   
H1208    H      0.105590000000     0.832380000000     0.959740000000     0.200685   
H1209    H      0.780860000000     0.600990000000     0.644500000000     0.203954   
H1210    H      0.871990000000     0.018380000000     0.603410000000     0.201047   
H1211    H      0.750990000000     0.992150000000     0.073500000000     0.206797   
H1212    H      0.807540000000     0.595910000000     0.014420000000     0.199935   
H1213    H      0.872640000000     0.016440000000     0.665160000000     0.122939   
H1214    H      0.850260000000     0.955300000000     0.637300000000     0.187466   
H1215    H      0.809840000000     0.948970000000     0.039310000000     0.145072   
H1216    H      0.774360000000     0.980400000000     0.996280000000     0.205075   
H1217    H      0.737080000000     0.586970000000     0.996410000000     0.128124   
H1218    H      0.758370000000     0.644670000000     0.022600000000     0.182388   
H1219    H      0.822040000000     0.655780000000     0.619150000000     0.144857   
H1220    H      0.825330000000     0.614890000000     0.682800000000     0.194988   
H1221    H      0.739290000000     0.982880000000     0.009560000000     0.197945   
H1222    H      0.768230000000     0.674150000000     0.046140000000     0.201018   
H1223    H      0.856290000000     0.622850000000     0.662430000000     0.198492   
H1224    H      0.836970000000     0.927710000000     0.613290000000     0.202999   
H1225    H      0.936180000000     0.007000000000     0.529920000000     0.0419043  
H1226    H      0.953000000000     0.969680000000     0.532300000000     0.0322511  
H1227    H      0.972430000000     0.918220000000     0.957240000000     0.0397264  
H1228    H      0.972970000000     0.958940000000     0.949110000000     0.0240487  
H1229    H      0.924520000000     0.941200000000     0.454860000000     0.0384459  
H1230    H      0.934070000000     0.928260000000     0.493320000000     0.0466632  
H1231    H      0.999920000000     0.972480000000     0.494370000000     0.0984034  
H1232    H      0.943860000000     0.995050000000     0.980860000000     0.0398642  
H1233    H      0.906120000000     0.983170000000     0.985780000000     0.0496152  
H1234    H      0.905940000000     0.944390000000     0.050140000000     0.0923605  
H1235    H      0.959780000000     0.696060000000     0.015690000000     0.0261391  
H1236    H      0.974080000000     0.708800000000     0.550910000000     0.0403872  
H1237    H      0.866080000000     0.696270000000     0.562550000000     0.0343708  
H1238    H      0.851850000000     0.701050000000     0.021850000000     0.0291045  
H1239    H      0.904400000000     0.707700000000     0.503040000000     0.0427257  
H1240    H      0.893590000000     0.736100000000     0.028600000000     0.0404025  
H1241    H      0.893880000000     0.652310000000     0.015380000000     0.0972268  
H1242    H      0.922220000000     0.718350000000     0.072050000000     0.0471442  
H1243    H      0.926200000000     0.682220000000     0.556850000000     0.0454532  
H1244    H      0.941930000000     0.754310000000     0.506910000000     0.0966586  
H1245    H      0.732530000000     0.943230000000     0.701730000000     0.0252682  
H1246    H      0.719750000000     0.981240000000     0.190330000000     0.0397605  
H1247    H      0.633880000000     0.928650000000     0.176790000000     0.0384411  
H1248    H      0.633820000000     0.966920000000     0.679560000000     0.0255666  
H1249    H      0.677260000000     0.940930000000     0.136300000000     0.0515899  
H1250    H      0.676390000000     0.972860000000     0.646650000000     0.0546907  
H1251    H      0.615150000000     0.975130000000     0.627240000000     0.0996983  
H1252    H      0.679990000000     0.938000000000     0.701780000000     0.0376396  
H1253    H      0.693380000000     0.915090000000     0.182280000000     0.0425235  
H1254    H      0.749250000000     0.925130000000     0.158820000000     0.096451   
H1255    H      0.609240000000     0.697890000000     0.653520000000     0.0285024  
H1256    H      0.602370000000     0.712350000000     0.111650000000     0.0416449  
H1257    H      0.694510000000     0.669930000000     0.092810000000     0.0352618  
H1258    H      0.703600000000     0.679940000000     0.633150000000     0.0323508  
H1259    H      0.641870000000     0.661800000000     0.107260000000     0.0449336  
H1260    H      0.650110000000     0.662490000000     0.649580000000     0.0446457  
H1261    H      0.680830000000     0.619940000000     0.641850000000     0.0970096  
H1262    H      0.663940000000     0.718370000000     0.641400000000     0.0440911  
H1263    H      0.654820000000     0.718440000000     0.099910000000     0.0452568  
H1264    H      0.629780000000     0.756030000000     0.160660000000     0.0973648  
H1265    H      0.882250000000     0.523880000000     0.954830000000     0.0346855  
H1266    H      0.870780000000     0.024720000000     0.914250000000     0.0227552  
H1267    H      0.923900000000     0.110490000000     0.903110000000     0.0404728  
H1268    H      0.920630000000     0.616780000000     0.944970000000     0.0268147  
H1269    H      0.922790000000     0.053860000000     0.909970000000     0.0448572  
H1270    H      0.925800000000     0.557590000000     0.952010000000     0.0470106  
H1271    H      0.970940000000     0.604530000000     0.952600000000     0.0998216  
H1272    H      0.876430000000     0.584390000000     0.954060000000     0.0574514  
H1273    H      0.872680000000     0.081020000000     0.912100000000     0.0465263  
H1274    H      0.821590000000     0.034930000000     0.929880000000     0.0984722  
H1275    H      0.671330000000     0.514610000000     0.009830000000     0.0318154  
H1276    H      0.634090000000     0.019250000000     0.025200000000     0.0247814  
H1277    H      0.623900000000     0.102600000000     0.963640000000     0.0403721  
H1278    H      0.663520000000     0.608320000000     0.968440000000     0.0263329  
H1279    H      0.628530000000     0.046640000000     0.968830000000     0.0507231  
H1280    H      0.668280000000     0.547700000000     0.962980000000     0.052226   
H1281    H      0.673700000000     0.587950000000     0.917290000000     0.0998846  
H1282    H      0.675340000000     0.575510000000     0.013670000000     0.0550729  
H1283    H      0.635720000000     0.075310000000     0.020550000000     0.0449939  
H1284    H      0.653780000000     0.030620000000     0.075100000000     0.0996165  
H1285    H      0.675700000000     0.589080000000     0.693150000000     0.0273378  
H1286    H      0.670190000000     0.099420000000     0.733890000000     0.0364761  
H1287    H      0.742810000000     0.029800000000     0.759590000000     0.0251887  
H1288    H      0.733760000000     0.515820000000     0.720910000000     0.0348368  
H1289    H      0.722230000000     0.079520000000     0.751370000000     0.0418912  
H1290    H      0.727120000000     0.578410000000     0.709740000000     0.0548927  
H1291    H      0.788500000000     0.547090000000     0.739970000000     0.0991507  
H1292    H      0.687310000000     0.535060000000     0.707450000000     0.0497028  
H1293    H      0.680510000000     0.042730000000     0.748440000000     0.054678   
H1294    H      0.629250000000     0.064200000000     0.691870000000     0.101119   
H1295    H      0.910850000000     0.039940000000     0.714380000000     0.042712   
H1296    H      0.919570000000     0.565930000000     0.746350000000     0.0430772  
H1297    H      0.923850000000     0.618160000000     0.650230000000     0.0292748  
H1298    H      0.962580000000     0.111460000000     0.641610000000     0.021853   
H1299    H      0.927710000000     0.553260000000     0.659580000000     0.0556742  
H1300    H      0.964900000000     0.065140000000     0.668800000000     0.0457987  
H1301    H      0.947530000000     0.089660000000     0.593640000000     0.0980582  
H1302    H      0.946280000000     0.101580000000     0.709650000000     0.0398001  
H1303    H      0.908170000000     0.595070000000     0.697840000000     0.0457813  
H1304    H      0.963470000000     0.527670000000     0.707550000000     0.0951715  
H1305    H      0.521090000000     0.698630000000     0.940760000000     0.0301899  
H1306    H      0.549820000000     0.670770000000     0.948390000000     0.0439243  
H1307    H      0.131050000000     0.714770000000     0.983620000000     0.0272574  
H1308    H      0.110180000000     0.748010000000     0.970610000000     0.0378311  
H1309    H      0.607110000000     0.710310000000     0.935190000000     0.0439564  
H1310    H      0.597780000000     0.687010000000     0.968830000000     0.0461298  
H1311    H      0.592810000000     0.713340000000     0.021360000000     0.0968974  
H1312    H      0.047340000000     0.718510000000     0.978130000000     0.0452074  
H1313    H      0.057740000000     0.737740000000     0.942420000000     0.0399102  
H1314    H      0.043760000000     0.712840000000     0.891750000000     0.0946391  
H1315    H      0.075520000000     0.960300000000     0.975000000000     0.0392817  
H1316    H      0.061380000000     0.954360000000     0.935930000000     0.0339115  
H1317    H      0.654380000000     0.908940000000     0.971900000000     0.0360092  
H1318    H      0.664860000000     0.949310000000     0.967450000000     0.0232012  
H1319    H      0.134350000000     0.924550000000     0.919790000000     0.0347758  
H1320    H      0.101120000000     0.913310000000     0.939930000000     0.0465995  
H1321    H      0.122540000000     0.955690000000     0.005220000000     0.0942807  
H1322    H      0.626480000000     0.986470000000     0.947910000000     0.0456232  
H1323    H      0.611160000000     0.973710000000     0.911570000000     0.0513196  
H1324    H      0.569700000000     0.016180000000     0.970560000000     0.100537   
H1325    H      0.073160000000     0.973410000000     0.705020000000     0.0404472  
H1326    H      0.080630000000     0.932400000000     0.708210000000     0.0252973  
H1327    H      0.474420000000     0.943170000000     0.679450000000     0.0369676  
H1328    H      0.469150000000     0.984230000000     0.676180000000     0.02186    
H1329    H      0.022680000000     0.991590000000     0.689030000000     0.0575353  
H1330    H      0.003350000000     0.971510000000     0.719960000000     0.0546653  
H1331    H      0.000690000000     0.985010000000     0.631030000000     0.0988996  
H1332    H      0.025660000000     0.920820000000     0.704180000000     0.0447541  
H1333    H      0.542890000000     0.940250000000     0.670780000000     0.0553567  
H1334    H      0.556810000000     0.931050000000     0.759260000000     0.0942798  
H1335    H      0.956230000000     0.711760000000     0.669900000000     0.0215693  
H1336    H      0.478260000000     0.716180000000     0.636970000000     0.0367025  
H1337    H      0.559600000000     0.683610000000     0.678530000000     0.0280996  
H1338    H      0.040690000000     0.686620000000     0.717900000000     0.0345148  
H1339    H      0.509700000000     0.671540000000     0.658060000000     0.043453   
H1340    H      0.990830000000     0.670640000000     0.693770000000     0.0422402  
H1341    H      0.043100000000     0.626630000000     0.678860000000     0.0985587  
H1342    H      0.002800000000     0.726660000000     0.699910000000     0.0415401  
H1343    H      0.525730000000     0.728240000000     0.664770000000     0.0546574  
H1344    H      0.457720000000     0.768530000000     0.677250000000     0.0944366  
N1       N      0.498680000000     0.456590000000     0.987740000000    -0.212832   
N2       N      0.406000000000     0.468790000000     0.540880000000    -0.214353   
N3       N      0.372760000000     0.162320000000     0.035930000000    -0.214203   
N4       N      0.461140000000     0.255410000000     0.022240000000    -0.214013   
N5       N      0.118110000000     0.449380000000     0.637590000000    -0.215474   
N6       N      0.240120000000     0.445020000000     0.655890000000    -0.212799   
N7       N      0.193110000000     0.122310000000     0.126950000000    -0.213152   
N8       N      0.110800000000     0.242800000000     0.644770000000    -0.214456   
N9       N      0.460890000000     0.603620000000     0.430050000000    -0.215448   
N10      N      0.337430000000     0.541410000000     0.445950000000    -0.21643    
N11      N      0.150180000000     0.090650000000     0.425710000000    -0.214531   
N12      N      0.168850000000     0.530080000000     0.556150000000    -0.215033   
N13      N      0.271560000000     0.031730000000     0.219720000000    -0.216239   
N14      N      0.139010000000     0.064510000000     0.216140000000    -0.21711    
N15      N      0.429440000000     0.092090000000     0.111050000000    -0.216792   
N16      N      0.456140000000     0.546280000000     0.225910000000    -0.213607   
N17      N      0.094670000000     0.229120000000     0.511510000000    -0.214269   
N18      N      0.047910000000     0.192560000000     0.402500000000    -0.213267   
N19      N      0.123090000000     0.436340000000     0.500940000000    -0.214736   
N20      N      0.566590000000     0.505060000000     0.448220000000    -0.216672   
N21      N      0.499670000000     0.471190000000     0.136320000000    -0.214337   
N22      N      0.558180000000     0.457590000000     0.245290000000    -0.214968   
N23      N      0.045460000000     0.137900000000     0.199160000000    -0.215799   
N24      N      0.473280000000     0.265240000000     0.155460000000    -0.216364   
N25      N      0.490260000000     0.449560000000     0.490520000000    -0.214428   
N26      N      0.410760000000     0.472880000000     0.033910000000    -0.21359    
N27      N      0.375080000000     0.159910000000     0.530930000000    -0.214041   
N28      N      0.456990000000     0.247410000000     0.527250000000    -0.212762   
N29      N      0.125700000000     0.445510000000     0.130240000000    -0.21579    
N30      N      0.245790000000     0.435290000000     0.145470000000    -0.213379   
N31      N      0.195400000000     0.131100000000     0.628420000000    -0.213547   
N32      N      0.113490000000     0.239450000000     0.143690000000    -0.213484   
N33      N      0.464520000000     0.604770000000     0.930760000000    -0.215603   
N34      N      0.338850000000     0.546090000000     0.941670000000    -0.216333   
N35      N      0.149860000000     0.091330000000     0.923790000000    -0.214496   
N36      N      0.170390000000     0.523340000000     0.050100000000    -0.21527    
N37      N      0.271140000000     0.045970000000     0.724910000000    -0.216454   
N38      N      0.137110000000     0.068970000000     0.713990000000    -0.217001   
N39      N      0.431240000000     0.089280000000     0.612410000000    -0.216725   
N40      N      0.456610000000     0.543910000000     0.727820000000    -0.213898   
N41      N      0.094070000000     0.225330000000     0.012220000000    -0.215446   
N42      N      0.045230000000     0.191420000000     0.903400000000    -0.213238   
N43      N      0.122010000000     0.432440000000     0.998030000000    -0.211341   
N44      N      0.569810000000     0.503600000000     0.949590000000    -0.216643   
N45      N      0.495750000000     0.465350000000     0.640370000000    -0.21436    
N46      N      0.556990000000     0.452590000000     0.747750000000    -0.214729   
N47      N      0.042550000000     0.140220000000     0.699200000000    -0.215562   
N48      N      0.472630000000     0.259170000000     0.660840000000    -0.216381   
N49      N      0.498690000000     0.956570000000     0.987710000000    -0.212838   
N50      N      0.406030000000     0.968780000000     0.540890000000    -0.213993   
N51      N      0.372720000000     0.662330000000     0.035940000000    -0.214172   
N52      N      0.461120000000     0.755410000000     0.022250000000    -0.213984   
N53      N      0.118130000000     0.949340000000     0.637560000000    -0.215521   
N54      N      0.240130000000     0.945050000000     0.655890000000    -0.212857   
N55      N      0.193090000000     0.622310000000     0.126980000000    -0.213144   
N56      N      0.110760000000     0.742760000000     0.644800000000    -0.214351   
N57      N      0.460950000000     0.103590000000     0.430060000000    -0.215459   
N58      N      0.337480000000     0.041400000000     0.445940000000    -0.216298   
N59      N      0.150140000000     0.590700000000     0.425760000000    -0.214577   
N60      N      0.168890000000     0.030080000000     0.556130000000    -0.214985   
N61      N      0.271560000000     0.531730000000     0.219740000000    -0.216265   
N62      N      0.139020000000     0.564560000000     0.216180000000    -0.217086   
N63      N      0.429420000000     0.592100000000     0.111040000000    -0.216743   
N64      N      0.456130000000     0.046230000000     0.225940000000    -0.213627   
N65      N      0.094630000000     0.729060000000     0.511540000000    -0.214173   
N66      N      0.047850000000     0.692600000000     0.402520000000    -0.213189   
N67      N      0.123090000000     0.936270000000     0.500910000000    -0.214755   
N68      N      0.566640000000     0.005010000000     0.448200000000    -0.216021   
N69      N      0.499680000000     0.971190000000     0.136290000000    -0.214397   
N70      N      0.558180000000     0.957560000000     0.245270000000    -0.214807   
N71      N      0.045460000000     0.637930000000     0.199180000000    -0.215764   
N72      N      0.473260000000     0.765250000000     0.155470000000    -0.216356   
N73      N      0.490280000000     0.949530000000     0.490520000000    -0.214428   
N74      N      0.410780000000     0.972860000000     0.033910000000    -0.213355   
N75      N      0.375030000000     0.659920000000     0.530950000000    -0.213927   
N76      N      0.456950000000     0.747400000000     0.527270000000    -0.212858   
N77      N      0.125700000000     0.945500000000     0.130210000000    -0.21583    
N78      N      0.245790000000     0.935290000000     0.145450000000    -0.213443   
N79      N      0.195360000000     0.631080000000     0.628460000000    -0.213596   
N80      N      0.113460000000     0.739440000000     0.143710000000    -0.213477   
N81      N      0.464570000000     0.104750000000     0.930750000000    -0.215653   
N82      N      0.338890000000     0.046080000000     0.941670000000    -0.216299   
N83      N      0.149810000000     0.591350000000     0.923830000000    -0.214494   
N84      N      0.170420000000     0.023330000000     0.050070000000    -0.215301   
N85      N      0.271130000000     0.545930000000     0.724920000000    -0.216492   
N86      N      0.137100000000     0.568970000000     0.714030000000    -0.217169   
N87      N      0.431200000000     0.589290000000     0.612410000000    -0.216722   
N88      N      0.456620000000     0.043870000000     0.727830000000    -0.213799   
N89      N      0.094060000000     0.725300000000     0.012240000000    -0.215566   
N90      N      0.045190000000     0.691440000000     0.903420000000    -0.21326    
N91      N      0.122020000000     0.932400000000     0.998010000000    -0.21138    
N92      N      0.569860000000     0.003580000000     0.949570000000    -0.215977   
N93      N      0.495780000000     0.965340000000     0.640350000000    -0.214412   
N94      N      0.557020000000     0.952570000000     0.747730000000    -0.214534   
N95      N      0.042540000000     0.640230000000     0.699220000000    -0.215679   
N96      N      0.472600000000     0.759170000000     0.660860000000    -0.216427   
N97      N      0.990960000000     0.446750000000     0.993200000000    -0.212623   
N98      N      0.906370000000     0.469360000000     0.539180000000    -0.214144   
N99      N      0.875080000000     0.158900000000     0.028330000000    -0.214605   
N100     N      0.958120000000     0.244110000000     0.025480000000    -0.213428   
N101     N      0.617900000000     0.452400000000     0.635460000000    -0.215651   
N102     N      0.739980000000     0.445090000000     0.653180000000    -0.212797   
N103     N      0.695760000000     0.133740000000     0.126820000000    -0.213121   
N104     N      0.613320000000     0.245640000000     0.644410000000    -0.214171   
N105     N      0.962830000000     0.602680000000     0.430260000000    -0.215612   
N106     N      0.838080000000     0.542760000000     0.444460000000    -0.216326   
N107     N      0.648390000000     0.094770000000     0.424990000000    -0.214379   
N108     N      0.669120000000     0.531680000000     0.554020000000    -0.214924   
N109     N      0.770610000000     0.050970000000     0.225450000000    -0.216376   
N110     N      0.637020000000     0.076600000000     0.214490000000    -0.217065   
N111     N      0.931860000000     0.088140000000     0.112940000000    -0.2167     
N112     N      0.957420000000     0.540300000000     0.227660000000    -0.214165   
N113     N      0.594320000000     0.230080000000     0.512730000000    -0.214158   
N114     N      0.544190000000     0.195760000000     0.404910000000    -0.213441   
N115     N      0.620270000000     0.437430000000     0.497650000000    -0.214578   
N116     N      0.068180000000     0.503170000000     0.451490000000    -0.216847   
N117     N      0.998880000000     0.461090000000     0.141920000000    -0.214222   
N118     N      0.058110000000     0.449390000000     0.250300000000    -0.214677   
N119     N      0.542430000000     0.147530000000     0.200090000000    -0.215459   
N120     N      0.972680000000     0.255160000000     0.160590000000    -0.216401   
N121     N      0.992050000000     0.449800000000     0.490990000000    -0.214333   
N122     N      0.905980000000     0.467980000000     0.043930000000    -0.214136   
N123     N      0.875270000000     0.160580000000     0.529290000000    -0.21425    
N124     N      0.957490000000     0.247140000000     0.523710000000    -0.212958   
N125     N      0.620860000000     0.456570000000     0.137490000000    -0.215827   
N126     N      0.740710000000     0.447800000000     0.159840000000    -0.213002   
N127     N      0.696130000000     0.131960000000     0.627640000000    -0.213302   
N128     N      0.614940000000     0.249270000000     0.142970000000    -0.213703   
N129     N      0.962250000000     0.599480000000     0.930390000000    -0.215452   
N130     N      0.837950000000     0.538980000000     0.946870000000    -0.216201   
N131     N      0.651530000000     0.090260000000     0.924470000000    -0.214265   
N132     N      0.668800000000     0.531810000000     0.056430000000    -0.214992   
N133     N      0.771580000000     0.044650000000     0.723280000000    -0.216517   
N134     N      0.637750000000     0.069210000000     0.714160000000    -0.217004   
N135     N      0.931830000000     0.088400000000     0.611750000000    -0.216698   
N136     N      0.956240000000     0.540840000000     0.726720000000    -0.213859   
N137     N      0.598210000000     0.234740000000     0.010950000000    -0.215791   
N138     N      0.551210000000     0.193720000000     0.903500000000    -0.213348   
N139     N      0.628830000000     0.441560000000     0.998330000000    -0.211608   
N140     N      0.068620000000     0.501420000000     0.949160000000    -0.216641   
N141     N      0.995780000000     0.463240000000     0.640830000000    -0.214241   
N142     N      0.058100000000     0.450940000000     0.747140000000    -0.214971   
N143     N      0.545390000000     0.141870000000     0.699460000000    -0.215671   
N144     N      0.970450000000     0.256960000000     0.657510000000    -0.216327   
N145     N      0.990970000000     0.946730000000     0.993160000000    -0.212644   
N146     N      0.906400000000     0.969360000000     0.539190000000    -0.213717   
N147     N      0.875060000000     0.658910000000     0.028340000000    -0.214583   
N148     N      0.958100000000     0.744100000000     0.025490000000    -0.213455   
N149     N      0.617930000000     0.952350000000     0.635440000000    -0.215755   
N150     N      0.740000000000     0.945140000000     0.653200000000    -0.212875   
N151     N      0.695740000000     0.633740000000     0.126850000000    -0.213131   
N152     N      0.613280000000     0.745590000000     0.644430000000    -0.214092   
N153     N      0.962880000000     0.102650000000     0.430260000000    -0.215627   
N154     N      0.838110000000     0.042760000000     0.444460000000    -0.216367   
N155     N      0.648340000000     0.594810000000     0.425030000000    -0.21432    
N156     N      0.669150000000     0.031690000000     0.554010000000    -0.214804   
N157     N      0.770610000000     0.550960000000     0.225470000000    -0.216495   
N158     N      0.637030000000     0.576640000000     0.214530000000    -0.217007   
N159     N      0.931840000000     0.588150000000     0.112940000000    -0.216715   
N160     N      0.957410000000     0.040270000000     0.227680000000    -0.214041   
N161     N      0.594280000000     0.730010000000     0.512750000000    -0.214185   
N162     N      0.544130000000     0.695800000000     0.404910000000    -0.213453   
N163     N      0.620290000000     0.937360000000     0.497620000000    -0.214608   
N164     N      0.068210000000     0.003130000000     0.451460000000    -0.216181   
N165     N      0.998890000000     0.961100000000     0.141880000000    -0.214296   
N166     N      0.058100000000     0.949360000000     0.250280000000    -0.214586   
N167     N      0.542430000000     0.647560000000     0.200100000000    -0.215423   
N168     N      0.972660000000     0.755170000000     0.160590000000    -0.216427   
N169     N      0.992050000000     0.949770000000     0.490970000000    -0.214323   
N170     N      0.906000000000     0.967960000000     0.043920000000    -0.213772   
N171     N      0.875220000000     0.660580000000     0.529320000000    -0.214164   
N172     N      0.957450000000     0.747120000000     0.523740000000    -0.212991   
N173     N      0.620860000000     0.956550000000     0.137470000000    -0.215933   
N174     N      0.740720000000     0.947800000000     0.159820000000    -0.213024   
N175     N      0.696090000000     0.631910000000     0.627670000000    -0.213338   
N176     N      0.614910000000     0.749260000000     0.143000000000    -0.213789   
N177     N      0.962300000000     0.099460000000     0.930390000000    -0.215436   
N178     N      0.837990000000     0.038980000000     0.946860000000    -0.216143   
N179     N      0.651480000000     0.590270000000     0.924510000000    -0.214156   
N180     N      0.668830000000     0.031800000000     0.056390000000    -0.21498    
N181     N      0.771550000000     0.544570000000     0.723290000000    -0.216508   
N182     N      0.637740000000     0.569210000000     0.714200000000    -0.216981   
N183     N      0.931790000000     0.588400000000     0.611750000000    -0.216766   
N184     N      0.956250000000     0.040800000000     0.726730000000    -0.213942   
N185     N      0.598190000000     0.734710000000     0.010970000000    -0.215836   
N186     N      0.551180000000     0.693730000000     0.903520000000    -0.213246   
N187     N      0.628850000000     0.941520000000     0.998320000000    -0.211598   
N188     N      0.068660000000     0.001400000000     0.949130000000    -0.215865   
N189     N      0.995800000000     0.963240000000     0.640800000000    -0.214325   
N190     N      0.058120000000     0.950930000000     0.747120000000    -0.21477    
N191     N      0.545380000000     0.641890000000     0.699480000000    -0.215635   
N192     N      0.970420000000     0.756970000000     0.657540000000    -0.216359   
O1       O      0.047030000000     0.141050000000     0.252620000000    -0.366821   
O2       O      0.545340000000     0.102520000000     0.227300000000    -0.357408   
O3       O      0.137240000000     0.082170000000     0.375130000000    -0.361382   
O4       O      0.100940000000     0.591760000000     0.411820000000    -0.354756   
O5       O      0.131430000000     0.068890000000     0.268860000000    -0.357898   
O6       O      0.093320000000     0.555420000000     0.235850000000    -0.361747   
O7       O      0.049030000000     0.168570000000     0.355220000000    -0.366499   
O8       O      0.549990000000     0.143140000000     0.401110000000    -0.357444   
O9       O      0.090720000000     0.168480000000     0.299310000000    -0.344305   
O10      O      0.511430000000     0.181270000000     0.301080000000    -0.515807   
O11      O      0.150280000000     0.113340000000     0.316490000000    -0.509351   
O12      O      0.157090000000     0.537100000000     0.326330000000    -0.341248   
O13      O      0.083810000000     0.098280000000     0.285790000000    -0.459936   
O14      O      0.085910000000     0.114050000000     0.345970000000    -0.609243   
O15      O      0.469440000000     0.590240000000     0.379010000000    -0.361215   
O16      O      0.508230000000     0.096010000000     0.413660000000    -0.36028    
O17      O      0.555340000000     0.480120000000     0.293120000000    -0.366053   
O18      O      0.054630000000     0.502310000000     0.252330000000    -0.358354   
O19      O      0.561800000000     0.504630000000     0.395230000000    -0.372543   
O20      O      0.058000000000     0.547540000000     0.424720000000    -0.358415   
O21      O      0.466530000000     0.563300000000     0.275590000000    -0.362143   
O22      O      0.503830000000     0.049450000000     0.241560000000    -0.365421   
O23      O      0.459010000000     0.529880000000     0.340160000000    -0.511533   
O24      O      0.442950000000     0.104220000000     0.320910000000    -0.32787    
O25      O      0.513650000000     0.479490000000     0.350290000000    -0.338753   
O26      O      0.088480000000     0.465070000000     0.351930000000    -0.51247    
O27      O      0.520020000000     0.547870000000     0.364570000000    -0.605914   
O28      O      0.518020000000     0.533660000000     0.303880000000    -0.461685   
O29      O      0.515670000000     0.117360000000     0.351010000000    -0.47598    
O30      O      0.087450000000     0.529240000000     0.301680000000    -0.624719   
O31      O      0.513860000000     0.102320000000     0.286020000000    -0.623675   
O32      O      0.089180000000     0.546000000000     0.365990000000    -0.477718   
O33      O      0.485270000000     0.314310000000     0.140670000000    -0.370857   
O34      O      0.006210000000     0.262670000000     0.121170000000    -0.361604   
O35      O      0.498730000000     0.405480000000     0.002340000000    -0.364468   
O36      O      0.519870000000     0.435140000000     0.531000000000    -0.359638   
O37      O      0.481890000000     0.303160000000     0.018250000000    -0.366971   
O38      O      0.498270000000     0.260580000000     0.556140000000    -0.354058   
O39      O      0.500400000000     0.418220000000     0.132850000000    -0.359723   
O40      O      0.023040000000     0.438300000000     0.101430000000    -0.361075   
O41      O      0.452910000000     0.370990000000     0.112570000000    -0.344222   
O42      O      0.000220000000     0.357810000000     0.180690000000    -0.51283    
O43      O      0.452530000000     0.364490000000     0.033430000000    -0.512281   
O44      O      0.487580000000     0.339590000000     0.475730000000    -0.330607   
O45      O      0.497750000000     0.328380000000     0.076350000000    -0.468967   
O46      O      0.504380000000     0.389570000000     0.070260000000    -0.608882   
O47      O      0.105970000000     0.398030000000     0.633260000000    -0.369638   
O48      O      0.087770000000     0.430960000000     0.098330000000    -0.355652   
O49      O      0.092540000000     0.282180000000     0.514520000000    -0.368102   
O50      O      0.565960000000     0.252940000000     0.549990000000    -0.359761   
O51      O      0.105900000000     0.386790000000     0.508100000000    -0.359785   
O52      O      0.585160000000     0.428840000000     0.534460000000    -0.361446   
O53      O      0.100540000000     0.293700000000     0.638370000000    -0.366647   
O54      O      0.074500000000     0.254030000000     0.111980000000    -0.351038   
O55      O      0.140830000000     0.342300000000     0.613230000000    -0.513649   
O56      O      0.097160000000     0.346170000000     0.176600000000    -0.342247   
O57      O      0.138300000000     0.330890000000     0.531000000000    -0.340628   
O58      O      0.586930000000     0.332990000000     0.470600000000    -0.513949   
O59      O      0.093620000000     0.371370000000     0.570950000000    -0.610093   
O60      O      0.087770000000     0.310610000000     0.576480000000    -0.470269   
O61      O      0.050970000000     0.381450000000     0.123230000000    -0.480869   
O62      O      0.537410000000     0.309840000000     0.528510000000    -0.621892   
O63      O      0.044280000000     0.315190000000     0.129870000000    -0.622034   
O64      O      0.543800000000     0.375890000000     0.520970000000    -0.477296   
O65      O      0.330520000000     0.142300000000     0.058600000000    -0.359074   
O66      O      0.365940000000     0.108580000000     0.535320000000    -0.363413   
O67      O      0.305790000000     0.043450000000     0.182830000000    -0.366514   
O68      O      0.257110000000     0.535390000000     0.168490000000    -0.355645   
O69      O      0.383580000000     0.076520000000     0.126990000000    -0.372097   
O70      O      0.395880000000     0.574620000000     0.074980000000    -0.355623   
O71      O      0.238230000000     0.122460000000     0.101530000000    -0.351373   
O72      O      0.221840000000     0.086670000000     0.628610000000    -0.365609   
O73      O      0.294760000000     0.153150000000     0.115840000000    -0.339748   
O74      O      0.267320000000     0.152270000000     0.543340000000    -0.517004   
O75      O      0.336380000000     0.102980000000     0.167750000000    -0.515137   
O76      O      0.366260000000     0.530540000000     0.172830000000    -0.332475   
O77      O      0.336170000000     0.093260000000     0.093420000000    -0.468285   
O78      O      0.286500000000     0.082040000000     0.126130000000    -0.610712   
O79      O      0.216410000000     0.536170000000     0.538540000000    -0.367284   
O80      O      0.206870000000     0.034360000000     0.591290000000    -0.356575   
O81      O      0.361190000000     0.472950000000     0.565320000000    -0.370331   
O82      O      0.385200000000     0.518650000000     0.037120000000    -0.358589   
O83      O      0.276860000000     0.460800000000     0.622770000000    -0.357663   
O84      O      0.243090000000     0.486150000000     0.130430000000    -0.356829   
O85      O      0.301040000000     0.542360000000     0.482700000000    -0.365371   
O86      O      0.349720000000     0.050760000000     0.496940000000    -0.359896   
O87      O      0.258970000000     0.492770000000     0.505490000000    -0.512058   
O88      O      0.243050000000     0.068230000000     0.487880000000    -0.332048   
O89      O      0.297040000000     0.447650000000     0.554970000000    -0.343326   
O90      O      0.343530000000     0.445860000000     0.111460000000    -0.510291   
O91      O      0.266100000000     0.507620000000     0.574150000000    -0.608696   
O92      O      0.315960000000     0.514970000000     0.540780000000    -0.471095   
O93      O      0.251100000000     0.076720000000     0.569480000000    -0.477519   
O94      O      0.353960000000     0.524990000000     0.094950000000    -0.623797   
O95      O      0.304540000000     0.084940000000     0.533840000000    -0.620639   
O96      O      0.301090000000     0.512570000000     0.129270000000    -0.473941   
O97      O      0.044460000000     0.142500000000     0.752710000000    -0.366542   
O98      O      0.547410000000     0.097320000000     0.727470000000    -0.357644   
O99      O      0.136570000000     0.083670000000     0.873200000000    -0.361834   
O100     O      0.100450000000     0.591390000000     0.910510000000    -0.354818   
O101     O      0.129700000000     0.072370000000     0.766790000000    -0.357929   
O102     O      0.091870000000     0.557700000000     0.733930000000    -0.361898   
O103     O      0.046520000000     0.168220000000     0.855740000000    -0.366567   
O104     O      0.554690000000     0.140860000000     0.900460000000    -0.357402   
O105     O      0.088100000000     0.169740000000     0.799660000000    -0.343809   
O106     O      0.515850000000     0.178340000000     0.800350000000    -0.516738   
O107     O      0.148990000000     0.115230000000     0.815170000000    -0.508488   
O108     O      0.156550000000     0.539090000000     0.823430000000    -0.342422   
O109     O      0.082090000000     0.099810000000     0.784780000000    -0.459678   
O110     O      0.084430000000     0.114610000000     0.845240000000    -0.609121   
O111     O      0.472360000000     0.590290000000     0.879910000000    -0.361416   
O112     O      0.511500000000     0.095240000000     0.914220000000    -0.36047    
O113     O      0.554980000000     0.475910000000     0.795270000000    -0.365149   
O114     O      0.054050000000     0.503770000000     0.750040000000    -0.358423   
O115     O      0.563620000000     0.502240000000     0.896800000000    -0.373173   
O116     O      0.058310000000     0.546180000000     0.923080000000    -0.357779   
O117     O      0.467840000000     0.561450000000     0.777090000000    -0.362511   
O118     O      0.504480000000     0.045770000000     0.743060000000    -0.365655   
O119     O      0.460000000000     0.529250000000     0.842450000000    -0.511414   
O120     O      0.445580000000     0.103500000000     0.821890000000    -0.327603   
O121     O      0.513160000000     0.477790000000     0.853120000000    -0.339255   
O122     O      0.089860000000     0.465790000000     0.848620000000    -0.512637   
O123     O      0.521600000000     0.545860000000     0.865910000000    -0.605567   
O124     O      0.518710000000     0.530680000000     0.805510000000    -0.461624   
O125     O      0.518960000000     0.115290000000     0.851140000000    -0.476177   
O126     O      0.087060000000     0.530550000000     0.799460000000    -0.624881   
O127     O      0.516240000000     0.099150000000     0.786450000000    -0.623634   
O128     O      0.089070000000     0.546290000000     0.864060000000    -0.47799    
O129     O      0.483600000000     0.308370000000     0.645670000000    -0.371096   
O130     O      0.004770000000     0.265000000000     0.618960000000    -0.361204   
O131     O      0.490800000000     0.398780000000     0.506190000000    -0.363808   
O132     O      0.527200000000     0.441240000000     0.028750000000    -0.359812   
O133     O      0.474490000000     0.296740000000     0.525490000000    -0.364838   
O134     O      0.501010000000     0.267810000000     0.053220000000    -0.353222   
O135     O      0.497090000000     0.412370000000     0.637000000000    -0.359598   
O136     O      0.020300000000     0.440970000000     0.600310000000    -0.36096    
O137     O      0.449490000000     0.364440000000     0.618840000000    -0.343957   
O138     O      0.996070000000     0.359780000000     0.678630000000    -0.511786   
O139     O      0.446010000000     0.358490000000     0.539600000000    -0.512386   
O140     O      0.496530000000     0.347170000000     0.970770000000    -0.327817   
O141     O      0.493460000000     0.322120000000     0.581020000000    -0.469184   
O142     O      0.498890000000     0.383610000000     0.574370000000    -0.609578   
O143     O      0.110450000000     0.394880000000     0.129890000000    -0.366098   
O144     O      0.084300000000     0.434240000000     0.601090000000    -0.354867   
O145     O      0.092030000000     0.278420000000     0.014680000000    -0.368406   
O146     O      0.569530000000     0.257980000000     0.047710000000    -0.360382   
O147     O      0.105210000000     0.382920000000     0.006470000000    -0.360588   
O148     O      0.592870000000     0.433450000000     0.034360000000    -0.362426   
O149     O      0.103500000000     0.290400000000     0.136800000000    -0.364031   
O150     O      0.073140000000     0.257400000000     0.611490000000    -0.35223    
O151     O      0.143180000000     0.338800000000     0.114990000000    -0.511323   
O152     O      0.095630000000     0.348310000000     0.676860000000    -0.335009   
O153     O      0.138210000000     0.327210000000     0.028730000000    -0.346005   
O154     O      0.596380000000     0.337990000000     0.970430000000    -0.511737   
O155     O      0.094710000000     0.367880000000     0.070140000000    -0.610969   
O156     O      0.088710000000     0.307430000000     0.076310000000    -0.46809    
O157     O      0.048380000000     0.384000000000     0.622810000000    -0.480775   
O158     O      0.543600000000     0.315410000000     0.025910000000    -0.622122   
O159     O      0.041980000000     0.317860000000     0.628800000000    -0.622843   
O160     O      0.551370000000     0.381440000000     0.018820000000    -0.47862    
O161     O      0.332240000000     0.143480000000     0.555470000000    -0.358359   
O162     O      0.364350000000     0.110620000000     0.033970000000    -0.36453    
O163     O      0.305480000000     0.053910000000     0.687180000000    -0.367667   
O164     O      0.256690000000     0.545430000000     0.673480000000    -0.354446   
O165     O      0.384690000000     0.077480000000     0.629370000000    -0.373332   
O166     O      0.396270000000     0.572720000000     0.577380000000    -0.355402   
O167     O      0.240140000000     0.129040000000     0.601980000000    -0.349737   
O168     O      0.220530000000     0.078180000000     0.125270000000    -0.361435   
O169     O      0.299290000000     0.157690000000     0.614870000000    -0.341484   
O170     O      0.264960000000     0.149210000000     0.043720000000    -0.517695   
O171     O      0.339370000000     0.109600000000     0.667880000000    -0.513977   
O172     O      0.364720000000     0.535490000000     0.677840000000    -0.332651   
O173     O      0.337280000000     0.095700000000     0.594950000000    -0.468908   
O174     O      0.287540000000     0.088290000000     0.628370000000    -0.610281   
O175     O      0.217800000000     0.532170000000     0.033130000000    -0.367605   
O176     O      0.208100000000     0.026870000000     0.085610000000    -0.356668   
O177     O      0.365430000000     0.473840000000     0.057650000000    -0.370274   
O178     O      0.382520000000     0.515770000000     0.542350000000    -0.358795   
O179     O      0.281980000000     0.455300000000     0.114400000000    -0.358728   
O180     O      0.240350000000     0.494930000000     0.638190000000    -0.359032   
O181     O      0.302230000000     0.544640000000     0.978130000000    -0.363809   
O182     O      0.350620000000     0.053540000000     0.993110000000    -0.357488   
O183     O      0.262170000000     0.492100000000     0.998200000000    -0.510595   
O184     O      0.243420000000     0.067690000000     0.984370000000    -0.330178   
O185     O      0.301660000000     0.446560000000     0.045030000000    -0.344797   
O186     O      0.338860000000     0.449450000000     0.621700000000    -0.511207   
O187     O      0.268580000000     0.503650000000     0.067430000000    -0.607689   
O188     O      0.318250000000     0.514940000000     0.034670000000    -0.471646   
O189     O      0.250860000000     0.072180000000     0.066390000000    -0.477712   
O190     O      0.352310000000     0.526610000000     0.600170000000    -0.623798   
O191     O      0.304090000000     0.084540000000     0.031510000000    -0.620424   
O192     O      0.299390000000     0.518410000000     0.635470000000    -0.475115   
O193     O      0.047010000000     0.641080000000     0.252640000000    -0.366882   
O194     O      0.545340000000     0.602550000000     0.227310000000    -0.357388   
O195     O      0.137200000000     0.582220000000     0.375170000000    -0.361512   
O196     O      0.100980000000     0.091710000000     0.411790000000    -0.354767   
O197     O      0.131430000000     0.568940000000     0.268900000000    -0.357899   
O198     O      0.093310000000     0.055370000000     0.235820000000    -0.361523   
O199     O      0.048990000000     0.668610000000     0.355230000000    -0.366391   
O200     O      0.549940000000     0.643180000000     0.401120000000    -0.35746    
O201     O      0.090690000000     0.668520000000     0.299340000000    -0.344249   
O202     O      0.511400000000     0.681310000000     0.301080000000    -0.515938   
O203     O      0.150260000000     0.613390000000     0.316540000000    -0.509326   
O204     O      0.157100000000     0.037040000000     0.326280000000    -0.341293   
O205     O      0.083800000000     0.598320000000     0.285820000000    -0.459965   
O206     O      0.085880000000     0.614090000000     0.346000000000    -0.609096   
O207     O      0.469480000000     0.090210000000     0.379010000000    -0.361134   
O208     O      0.508180000000     0.596040000000     0.413660000000    -0.360306   
O209     O      0.555350000000     0.980080000000     0.293100000000    -0.366419   
O210     O      0.054620000000     0.002270000000     0.252310000000    -0.35707    
O211     O      0.561830000000     0.004590000000     0.395210000000    -0.37191    
O212     O      0.058040000000     0.047500000000     0.424690000000    -0.358329   
O213     O      0.466540000000     0.063260000000     0.275610000000    -0.362008   
O214     O      0.503830000000     0.549480000000     0.241560000000    -0.365621   
O215     O      0.459040000000     0.029850000000     0.340180000000    -0.511811   
O216     O      0.442930000000     0.604250000000     0.320890000000    -0.32802    
O217     O      0.513680000000     0.979450000000     0.350280000000    -0.339683   
O218     O      0.088490000000     0.965030000000     0.351900000000    -0.512604   
O219     O      0.520060000000     0.047840000000     0.364560000000    -0.605825   
O220     O      0.518040000000     0.033630000000     0.303880000000    -0.461512   
O221     O      0.515640000000     0.617390000000     0.351020000000    -0.475915   
O222     O      0.087460000000     0.029190000000     0.301650000000    -0.625126   
O223     O      0.513840000000     0.602350000000     0.286020000000    -0.623731   
O224     O      0.089210000000     0.045960000000     0.365960000000    -0.477719   
O225     O      0.485260000000     0.814320000000     0.140660000000    -0.370923   
O226     O      0.006190000000     0.762670000000     0.121170000000    -0.361534   
O227     O      0.498730000000     0.905470000000     0.002330000000    -0.364535   
O228     O      0.519890000000     0.935110000000     0.530990000000    -0.359685   
O229     O      0.481880000000     0.803150000000     0.018240000000    -0.366955   
O230     O      0.498230000000     0.760550000000     0.556150000000    -0.353932   
O231     O      0.500400000000     0.918220000000     0.132830000000    -0.359627   
O232     O      0.023050000000     0.938300000000     0.101400000000    -0.361124   
O233     O      0.452900000000     0.870990000000     0.112550000000    -0.344448   
O234     O      0.000210000000     0.857830000000     0.180670000000    -0.512563   
O235     O      0.452530000000     0.864480000000     0.033410000000    -0.51221    
O236     O      0.487580000000     0.839550000000     0.475730000000    -0.330674   
O237     O      0.497740000000     0.828370000000     0.076340000000    -0.468974   
O238     O      0.504380000000     0.889570000000     0.070250000000    -0.609002   
O239     O      0.105970000000     0.898000000000     0.633240000000    -0.369764   
O240     O      0.087780000000     0.930950000000     0.098310000000    -0.355844   
O241     O      0.092520000000     0.782120000000     0.514530000000    -0.368044   
O242     O      0.565930000000     0.752890000000     0.550010000000    -0.359775   
O243     O      0.105890000000     0.886730000000     0.508090000000    -0.359781   
O244     O      0.585180000000     0.928780000000     0.534440000000    -0.361625   
O245     O      0.100510000000     0.793670000000     0.638390000000    -0.366659   
O246     O      0.074480000000     0.754030000000     0.111990000000    -0.351015   
O247     O      0.140820000000     0.842240000000     0.613220000000    -0.51374    
O248     O      0.097150000000     0.846170000000     0.176590000000    -0.342122   
O249     O      0.138280000000     0.830830000000     0.531000000000    -0.340603   
O250     O      0.586920000000     0.832920000000     0.470600000000    -0.514114   
O251     O      0.093610000000     0.871330000000     0.570950000000    -0.610008   
O252     O      0.087750000000     0.810570000000     0.576480000000    -0.47038    
O253     O      0.050960000000     0.881450000000     0.123220000000    -0.480854   
O254     O      0.537390000000     0.809800000000     0.528520000000    -0.621989   
O255     O      0.044260000000     0.815190000000     0.129870000000    -0.622271   
O256     O      0.543800000000     0.875840000000     0.520960000000    -0.477291   
O257     O      0.330490000000     0.642310000000     0.058610000000    -0.359083   
O258     O      0.365900000000     0.608580000000     0.535330000000    -0.363285   
O259     O      0.305790000000     0.543460000000     0.182840000000    -0.36651    
O260     O      0.257120000000     0.035380000000     0.168470000000    -0.355498   
O261     O      0.383560000000     0.576530000000     0.126990000000    -0.372101   
O262     O      0.395900000000     0.074600000000     0.074980000000    -0.355485   
O263     O      0.238210000000     0.622470000000     0.101550000000    -0.351325   
O264     O      0.221800000000     0.586650000000     0.628630000000    -0.365515   
O265     O      0.294740000000     0.653160000000     0.115850000000    -0.339721   
O266     O      0.267280000000     0.652260000000     0.543380000000    -0.516464   
O267     O      0.336370000000     0.602990000000     0.167750000000    -0.515415   
O268     O      0.366270000000     0.030530000000     0.172830000000    -0.332406   
O269     O      0.336140000000     0.593270000000     0.093430000000    -0.46829    
O270     O      0.286480000000     0.582050000000     0.126140000000    -0.61044    
O271     O      0.216450000000     0.036170000000     0.538530000000    -0.367225   
O272     O      0.206830000000     0.534350000000     0.591310000000    -0.356769   
O273     O      0.361220000000     0.972960000000     0.565330000000    -0.370185   
O274     O      0.385230000000     0.018630000000     0.037120000000    -0.35748    
O275     O      0.276880000000     0.960820000000     0.622770000000    -0.357823   
O276     O      0.243100000000     0.986140000000     0.130410000000    -0.357682   
O277     O      0.301080000000     0.042360000000     0.482690000000    -0.365225   
O278     O      0.349680000000     0.550770000000     0.496950000000    -0.359968   
O279     O      0.259020000000     0.992770000000     0.505480000000    -0.512855   
O280     O      0.243010000000     0.568230000000     0.487900000000    -0.332194   
O281     O      0.297070000000     0.947650000000     0.554980000000    -0.343123   
O282     O      0.343540000000     0.945850000000     0.111460000000    -0.509989   
O283     O      0.266140000000     0.007630000000     0.574150000000    -0.607134   
O284     O      0.315990000000     0.014980000000     0.540780000000    -0.470298   
O285     O      0.251060000000     0.576710000000     0.569500000000    -0.477384   
O286     O      0.353980000000     0.024980000000     0.094950000000    -0.623287   
O287     O      0.304490000000     0.584940000000     0.533850000000    -0.620763   
O288     O      0.301110000000     0.012570000000     0.129260000000    -0.473239   
O289     O      0.044450000000     0.642520000000     0.752720000000    -0.366467   
O290     O      0.547400000000     0.597340000000     0.727480000000    -0.35772    
O291     O      0.136540000000     0.583680000000     0.873230000000    -0.361919   
O292     O      0.100490000000     0.091370000000     0.910480000000    -0.354863   
O293     O      0.129680000000     0.572380000000     0.766820000000    -0.35798    
O294     O      0.091880000000     0.057680000000     0.733900000000    -0.361681   
O295     O      0.046490000000     0.668240000000     0.855760000000    -0.366574   
O296     O      0.554650000000     0.640870000000     0.900480000000    -0.357406   
O297     O      0.088080000000     0.669750000000     0.799680000000    -0.343776   
O298     O      0.515830000000     0.678360000000     0.800360000000    -0.516725   
O299     O      0.148960000000     0.615240000000     0.815210000000    -0.508013   
O300     O      0.156580000000     0.039070000000     0.823380000000    -0.34229    
O301     O      0.082070000000     0.599820000000     0.784800000000    -0.459554   
O302     O      0.084400000000     0.614630000000     0.845270000000    -0.609054   
O303     O      0.472400000000     0.090270000000     0.879910000000    -0.361487   
O304     O      0.511460000000     0.595260000000     0.914230000000    -0.360337   
O305     O      0.555010000000     0.975890000000     0.795250000000    -0.365524   
O306     O      0.054070000000     0.003760000000     0.750020000000    -0.357117   
O307     O      0.563670000000     0.002230000000     0.896780000000    -0.372612   
O308     O      0.058350000000     0.046160000000     0.923060000000    -0.357875   
O309     O      0.467870000000     0.061420000000     0.777100000000    -0.362426   
O310     O      0.504460000000     0.545780000000     0.743070000000    -0.365821   
O311     O      0.460040000000     0.029230000000     0.842460000000    -0.511152   
O312     O      0.445550000000     0.603530000000     0.821900000000    -0.327552   
O313     O      0.513210000000     0.977770000000     0.853100000000    -0.340163   
O314     O      0.089900000000     0.965780000000     0.848590000000    -0.513188   
O315     O      0.521640000000     0.045840000000     0.865900000000    -0.605802   
O316     O      0.518740000000     0.030660000000     0.805500000000    -0.461446   
O317     O      0.518930000000     0.615310000000     0.851160000000    -0.476147   
O318     O      0.087090000000     0.030530000000     0.799430000000    -0.625111   
O319     O      0.516220000000     0.599170000000     0.786460000000    -0.623578   
O320     O      0.089110000000     0.046280000000     0.864030000000    -0.478046   
O321     O      0.483590000000     0.808370000000     0.645680000000    -0.371066   
O322     O      0.004740000000     0.764990000000     0.618980000000    -0.361196   
O323     O      0.490800000000     0.898750000000     0.506190000000    -0.363711   
O324     O      0.527210000000     0.941220000000     0.028720000000    -0.36005    
O325     O      0.474470000000     0.796720000000     0.525500000000    -0.364871   
O326     O      0.500990000000     0.767800000000     0.053220000000    -0.353203   
O327     O      0.497100000000     0.912360000000     0.636980000000    -0.359687   
O328     O      0.020310000000     0.940950000000     0.600290000000    -0.361124   
O329     O      0.449490000000     0.864440000000     0.618830000000    -0.344004   
O330     O      0.996070000000     0.859790000000     0.678630000000    -0.512033   
O331     O      0.446000000000     0.858480000000     0.539600000000    -0.512696   
O332     O      0.496540000000     0.847150000000     0.970760000000    -0.327835   
O333     O      0.493450000000     0.822100000000     0.581030000000    -0.469259   
O334     O      0.498890000000     0.883590000000     0.574370000000    -0.609671   
O335     O      0.110450000000     0.894870000000     0.129870000000    -0.366219   
O336     O      0.084320000000     0.934210000000     0.601070000000    -0.355098   
O337     O      0.092020000000     0.778390000000     0.014690000000    -0.368397   
O338     O      0.569520000000     0.757960000000     0.047720000000    -0.360469   
O339     O      0.105220000000     0.882890000000     0.006460000000    -0.360621   
O340     O      0.592870000000     0.933430000000     0.034340000000    -0.362492   
O341     O      0.103480000000     0.790400000000     0.136800000000    -0.36396    
O342     O      0.073110000000     0.757370000000     0.611510000000    -0.352153   
O343     O      0.143170000000     0.838780000000     0.114990000000    -0.511075   
O344     O      0.095620000000     0.848290000000     0.676860000000    -0.335059   
O345     O      0.138200000000     0.827180000000     0.028730000000    -0.345901   
O346     O      0.596380000000     0.837960000000     0.970430000000    -0.511853   
O347     O      0.094710000000     0.867860000000     0.070130000000    -0.610893   
O348     O      0.088700000000     0.807410000000     0.076310000000    -0.467921   
O349     O      0.048380000000     0.883980000000     0.622800000000    -0.480731   
O350     O      0.543590000000     0.815390000000     0.025910000000    -0.622183   
O351     O      0.041970000000     0.817840000000     0.628800000000    -0.622897   
O352     O      0.551370000000     0.881420000000     0.018810000000    -0.478605   
O353     O      0.332200000000     0.643470000000     0.555500000000    -0.358374   
O354     O      0.364310000000     0.610630000000     0.033970000000    -0.364551   
O355     O      0.305460000000     0.553880000000     0.687190000000    -0.367637   
O356     O      0.256720000000     0.045460000000     0.673460000000    -0.354289   
O357     O      0.384660000000     0.577470000000     0.629380000000    -0.37329    
O358     O      0.396310000000     0.072720000000     0.577380000000    -0.355403   
O359     O      0.240110000000     0.629020000000     0.602010000000    -0.349648   
O360     O      0.220510000000     0.578180000000     0.125290000000    -0.361434   
O361     O      0.299250000000     0.657670000000     0.614900000000    -0.341255   
O362     O      0.264930000000     0.649220000000     0.043740000000    -0.517616   
O363     O      0.339340000000     0.609580000000     0.667900000000    -0.514256   
O364     O      0.364740000000     0.035510000000     0.677840000000    -0.332484   
O365     O      0.337240000000     0.595690000000     0.594970000000    -0.468887   
O366     O      0.287510000000     0.588270000000     0.628390000000    -0.610248   
O367     O      0.217830000000     0.032160000000     0.033110000000    -0.367372   
O368     O      0.208080000000     0.526870000000     0.085640000000    -0.35687    
O369     O      0.365450000000     0.973830000000     0.057650000000    -0.370116   
O370     O      0.382560000000     0.015770000000     0.542350000000    -0.357437   
O371     O      0.281990000000     0.955300000000     0.114390000000    -0.358937   
O372     O      0.240380000000     0.994950000000     0.638180000000    -0.359934   
O373     O      0.302260000000     0.044640000000     0.978120000000    -0.363598   
O374     O      0.350580000000     0.553550000000     0.993120000000    -0.357529   
O375     O      0.262210000000     0.992100000000     0.998190000000    -0.510747   
O376     O      0.243380000000     0.567690000000     0.984390000000    -0.330249   
O377     O      0.301680000000     0.946550000000     0.045020000000    -0.344848   
O378     O      0.338880000000     0.949470000000     0.621720000000    -0.511155   
O379     O      0.268600000000     0.003640000000     0.067420000000    -0.605831   
O380     O      0.318270000000     0.014930000000     0.034670000000    -0.470981   
O381     O      0.250840000000     0.572180000000     0.066410000000    -0.477758   
O382     O      0.352340000000     0.026620000000     0.600170000000    -0.623329   
O383     O      0.304060000000     0.584550000000     0.031520000000    -0.620305   
O384     O      0.299420000000     0.018430000000     0.635460000000    -0.474516   
O385     O      0.544130000000     0.149030000000     0.253630000000    -0.366328   
O386     O      0.047690000000     0.093740000000     0.227760000000    -0.357793   
O387     O      0.635460000000     0.087810000000     0.374160000000    -0.361247   
O388     O      0.599090000000     0.595570000000     0.411200000000    -0.35473    
O389     O      0.629320000000     0.078950000000     0.267320000000    -0.357532   
O390     O      0.591730000000     0.564820000000     0.233930000000    -0.361624   
O391     O      0.545540000000     0.173200000000     0.356960000000    -0.367022   
O392     O      0.052600000000     0.139740000000     0.400280000000    -0.357452   
O393     O      0.587450000000     0.175530000000     0.301230000000    -0.34384    
O394     O      0.014900000000     0.175520000000     0.299060000000    -0.516528   
O395     O      0.648320000000     0.120850000000     0.316860000000    -0.508785   
O396     O      0.655890000000     0.544610000000     0.323400000000    -0.342454   
O397     O      0.581610000000     0.105810000000     0.285380000000    -0.459534   
O398     O      0.583550000000     0.119750000000     0.346020000000    -0.60879    
O399     O      0.971260000000     0.587780000000     0.379640000000    -0.361364   
O400     O      0.010060000000     0.093730000000     0.414210000000    -0.36039    
O401     O      0.055580000000     0.473400000000     0.297440000000    -0.365583   
O402     O      0.554110000000     0.510370000000     0.248920000000    -0.358515   
O403     O      0.062690000000     0.501160000000     0.398640000000    -0.373261   
O404     O      0.556700000000     0.550200000000     0.422650000000    -0.357992   
O405     O      0.968070000000     0.558090000000     0.277000000000    -0.362514   
O406     O      0.005100000000     0.042350000000     0.243480000000    -0.365611   
O407     O      0.959840000000     0.526390000000     0.342530000000    -0.511341   
O408     O      0.945010000000     0.100390000000     0.321190000000    -0.327579   
O409     O      0.013380000000     0.475580000000     0.354630000000    -0.339095   
O410     O      0.589100000000     0.470980000000     0.347200000000    -0.512646   
O411     O      0.021070000000     0.544020000000     0.366660000000    -0.605798   
O412     O      0.018880000000     0.527970000000     0.306430000000    -0.461862   
O413     O      0.017980000000     0.113150000000     0.350910000000    -0.476115   
O414     O      0.586530000000     0.536400000000     0.299040000000    -0.624704   
O415     O      0.016020000000     0.096140000000     0.286440000000    -0.623443   
O416     O      0.588080000000     0.551180000000     0.363900000000    -0.477871   
O417     O      0.984390000000     0.304300000000     0.145860000000    -0.370891   
O418     O      0.508380000000     0.272550000000     0.117560000000    -0.360906   
O419     O      0.991650000000     0.395660000000     0.007820000000    -0.364305   
O420     O      0.021190000000     0.434500000000     0.531530000000    -0.359511   
O421     O      0.975620000000     0.293390000000     0.024760000000    -0.366827   
O422     O      0.998230000000     0.259730000000     0.553600000000    -0.354465   
O423     O      0.999370000000     0.408130000000     0.138100000000    -0.359629   
O424     O      0.525350000000     0.448220000000     0.096970000000    -0.360151   
O425     O      0.951180000000     0.361150000000     0.120190000000    -0.343727   
O426     O      0.498920000000     0.368260000000     0.175580000000    -0.512182   
O427     O      0.947080000000     0.354700000000     0.041080000000    -0.512518   
O428     O      0.989710000000     0.339980000000     0.473980000000    -0.331055   
O429     O      0.994410000000     0.318290000000     0.081530000000    -0.468763   
O430     O      0.000550000000     0.379710000000     0.075290000000    -0.609906   
O431     O      0.606380000000     0.400850000000     0.631830000000    -0.369385   
O432     O      0.588820000000     0.441100000000     0.099470000000    -0.355895   
O433     O      0.591830000000     0.283160000000     0.514990000000    -0.368275   
O434     O      0.065870000000     0.251680000000     0.548590000000    -0.35974    
O435     O      0.603890000000     0.387800000000     0.506260000000    -0.359431   
O436     O      0.086830000000     0.427550000000     0.536460000000    -0.361728   
O437     O      0.602430000000     0.296380000000     0.637710000000    -0.365931   
O438     O      0.576780000000     0.264040000000     0.110350000000    -0.351537   
O439     O      0.641580000000     0.345490000000     0.611740000000    -0.513526   
O440     O      0.597850000000     0.354820000000     0.176290000000    -0.337048   
O441     O      0.637470000000     0.332710000000     0.529710000000    -0.341093   
O442     O      0.088880000000     0.332900000000     0.470910000000    -0.513996   
O443     O      0.593320000000     0.373200000000     0.569900000000    -0.610131   
O444     O      0.587920000000     0.312440000000     0.576420000000    -0.470215   
O445     O      0.552500000000     0.391240000000     0.120660000000    -0.480296   
O446     O      0.038170000000     0.309070000000     0.527440000000    -0.622047   
O447     O      0.545470000000     0.325250000000     0.127290000000    -0.622787   
O448     O      0.045130000000     0.375180000000     0.520950000000    -0.477581   
O449     O      0.832460000000     0.143180000000     0.053570000000    -0.360001   
O450     O      0.866370000000     0.109250000000     0.534070000000    -0.363833   
O451     O      0.805100000000     0.057290000000     0.187590000000    -0.367802   
O452     O      0.756270000000     0.548920000000     0.174020000000    -0.354479   
O453     O      0.885010000000     0.077720000000     0.129910000000    -0.37313    
O454     O      0.896520000000     0.572450000000     0.077940000000    -0.355902   
O455     O      0.740660000000     0.130640000000     0.100760000000    -0.34972    
O456     O      0.722210000000     0.087250000000     0.627300000000    -0.364992   
O457     O      0.800060000000     0.158920000000     0.112930000000    -0.341726   
O458     O      0.767980000000     0.153480000000     0.543030000000    -0.51634    
O459     O      0.839610000000     0.112380000000     0.166480000000    -0.514525   
O460     O      0.863900000000     0.538230000000     0.179390000000    -0.331834   
O461     O      0.837540000000     0.096480000000     0.094560000000    -0.469102   
O462     O      0.787540000000     0.090020000000     0.127990000000    -0.61051    
O463     O      0.716750000000     0.537740000000     0.536610000000    -0.367156   
O464     O      0.707090000000     0.035360000000     0.589320000000    -0.356388   
O465     O      0.861340000000     0.473450000000     0.563210000000    -0.370104   
O466     O      0.882680000000     0.515110000000     0.044050000000    -0.35869    
O467     O      0.776800000000     0.461080000000     0.620280000000    -0.357805   
O468     O      0.740450000000     0.497090000000     0.140320000000    -0.359091   
O469     O      0.801560000000     0.543810000000     0.481090000000    -0.365318   
O470     O      0.850260000000     0.051660000000     0.495560000000    -0.35983    
O471     O      0.759160000000     0.494240000000     0.503400000000    -0.511779   
O472     O      0.743730000000     0.069970000000     0.486350000000    -0.331657   
O473     O      0.796990000000     0.448610000000     0.552230000000    -0.343548   
O474     O      0.838400000000     0.450670000000     0.124410000000    -0.510675   
O475     O      0.766250000000     0.508430000000     0.572120000000    -0.608665   
O476     O      0.816250000000     0.515880000000     0.538880000000    -0.471034   
O477     O      0.751580000000     0.077650000000     0.568100000000    -0.477357   
O478     O      0.852180000000     0.527450000000     0.101490000000    -0.624074   
O479     O      0.805120000000     0.085930000000     0.532670000000    -0.620693   
O480     O      0.799110000000     0.520360000000     0.136720000000    -0.475142   
O481     O      0.547370000000     0.144310000000     0.752950000000    -0.366612   
O482     O      0.045630000000     0.095620000000     0.727040000000    -0.357484   
O483     O      0.638090000000     0.082550000000     0.873860000000    -0.360903   
O484     O      0.602210000000     0.592260000000     0.910960000000    -0.354405   
O485     O      0.630710000000     0.072450000000     0.767050000000    -0.357008   
O486     O      0.592520000000     0.558450000000     0.734330000000    -0.361859   
O487     O      0.550990000000     0.170370000000     0.855870000000    -0.366764   
O488     O      0.051070000000     0.138760000000     0.900290000000    -0.35731    
O489     O      0.591690000000     0.170570000000     0.799370000000    -0.343392   
O490     O      0.012100000000     0.175550000000     0.799910000000    -0.516206   
O491     O      0.651520000000     0.114230000000     0.815920000000    -0.509003   
O492     O      0.656960000000     0.537930000000     0.823460000000    -0.342906   
O493     O      0.584030000000     0.100680000000     0.785190000000    -0.45948    
O494     O      0.586860000000     0.115590000000     0.845490000000    -0.608949   
O495     O      0.970500000000     0.585570000000     0.879450000000    -0.361132   
O496     O      0.009490000000     0.091650000000     0.913780000000    -0.360095   
O497     O      0.055940000000     0.474180000000     0.794660000000    -0.366298   
O498     O      0.553850000000     0.505480000000     0.750610000000    -0.358362   
O499     O      0.063170000000     0.500240000000     0.896260000000    -0.372638   
O500     O      0.559090000000     0.548250000000     0.923570000000    -0.358404   
O501     O      0.966980000000     0.557900000000     0.776290000000    -0.362435   
O502     O      0.003990000000     0.043150000000     0.742280000000    -0.365788   
O503     O      0.959890000000     0.524600000000     0.841270000000    -0.511647   
O504     O      0.943590000000     0.098690000000     0.821560000000    -0.327522   
O505     O      0.014470000000     0.474510000000     0.852120000000    -0.338964   
O506     O      0.588000000000     0.466330000000     0.849310000000    -0.51185    
O507     O      0.020990000000     0.543020000000     0.865290000000    -0.605797   
O508     O      0.018580000000     0.527920000000     0.804840000000    -0.461782   
O509     O      0.016600000000     0.112330000000     0.850750000000    -0.476043   
O510     O      0.587270000000     0.531360000000     0.800010000000    -0.624779   
O511     O      0.014390000000     0.096380000000     0.786000000000    -0.623647   
O512     O      0.589710000000     0.547230000000     0.864530000000    -0.477621   
O513     O      0.981960000000     0.306300000000     0.643230000000    -0.37093    
O514     O      0.506030000000     0.266880000000     0.621350000000    -0.361457   
O515     O      0.992280000000     0.398720000000     0.505660000000    -0.363911   
O516     O      0.021290000000     0.431420000000     0.032740000000    -0.359687   
O517     O      0.975260000000     0.296410000000     0.522900000000    -0.364767   
O518     O      0.998700000000     0.256850000000     0.055560000000    -0.354449   
O519     O      0.996610000000     0.410330000000     0.636580000000    -0.359548   
O520     O      0.520130000000     0.442650000000     0.599960000000    -0.360766   
O521     O      0.948850000000     0.363170000000     0.616600000000    -0.344157   
O522     O      0.498040000000     0.362460000000     0.679870000000    -0.512374   
O523     O      0.946830000000     0.358000000000     0.537200000000    -0.512422   
O524     O      0.988090000000     0.337280000000     0.976300000000    -0.327848   
O525     O      0.993290000000     0.320920000000     0.579150000000    -0.469191   
O526     O      0.999220000000     0.382440000000     0.573500000000    -0.609971   
O527     O      0.609210000000     0.405110000000     0.132810000000    -0.369143   
O528     O      0.583990000000     0.436420000000     0.599460000000    -0.355239   
O529     O      0.597360000000     0.287830000000     0.014040000000    -0.369282   
O530     O      0.066000000000     0.248330000000     0.049650000000    -0.359158   
O531     O      0.611780000000     0.392190000000     0.006630000000    -0.360545   
O532     O      0.086870000000     0.424030000000     0.034830000000    -0.360121   
O533     O      0.604680000000     0.300260000000     0.136760000000    -0.364238   
O534     O      0.574460000000     0.259510000000     0.612310000000    -0.351751   
O535     O      0.644940000000     0.349870000000     0.114520000000    -0.513748   
O536     O      0.597430000000     0.351260000000     0.676100000000    -0.33543    
O537     O      0.643760000000     0.336310000000     0.032340000000    -0.343162   
O538     O      0.086980000000     0.328570000000     0.970530000000    -0.512004   
O539     O      0.598730000000     0.377710000000     0.069990000000    -0.609461   
O540     O      0.592120000000     0.317030000000     0.076070000000    -0.470021   
O541     O      0.549000000000     0.386190000000     0.622550000000    -0.480595   
O542     O      0.037910000000     0.305770000000     0.028660000000    -0.621744   
O543     O      0.543180000000     0.320090000000     0.629620000000    -0.622624   
O544     O      0.045040000000     0.371810000000     0.021450000000    -0.4777     
O545     O      0.832660000000     0.144140000000     0.554220000000    -0.359223   
O546     O      0.866150000000     0.107720000000     0.034400000000    -0.364781   
O547     O      0.805840000000     0.053120000000     0.685650000000    -0.367923   
O548     O      0.757000000000     0.545090000000     0.671850000000    -0.354236   
O549     O      0.885130000000     0.076890000000     0.628410000000    -0.373441   
O550     O      0.896740000000     0.572830000000     0.576370000000    -0.355399   
O551     O      0.740880000000     0.129790000000     0.601220000000    -0.349706   
O552     O      0.721650000000     0.088860000000     0.127780000000    -0.363732   
O553     O      0.800490000000     0.157730000000     0.614500000000    -0.341795   
O554     O      0.767730000000     0.152090000000     0.041590000000    -0.516482   
O555     O      0.839680000000     0.109270000000     0.666810000000    -0.514252   
O556     O      0.864750000000     0.534890000000     0.676300000000    -0.332288   
O557     O      0.837840000000     0.096010000000     0.593900000000    -0.46934    
O558     O      0.787930000000     0.088470000000     0.627180000000    -0.610141   
O559     O      0.716540000000     0.536680000000     0.039010000000    -0.367514   
O560     O      0.706710000000     0.035910000000     0.091720000000    -0.356745   
O561     O      0.861080000000     0.472990000000     0.068040000000    -0.370344   
O562     O      0.882990000000     0.516400000000     0.540800000000    -0.358254   
O563     O      0.776980000000     0.462580000000     0.125820000000    -0.358644   
O564     O      0.740370000000     0.495180000000     0.635970000000    -0.359036   
O565     O      0.801430000000     0.540830000000     0.983480000000    -0.363415   
O566     O      0.850110000000     0.049180000000     0.997710000000    -0.357809   
O567     O      0.759030000000     0.491690000000     0.007540000000    -0.515629   
O568     O      0.743590000000     0.066660000000     0.987670000000    -0.329685   
O569     O      0.796440000000     0.447980000000     0.057790000000    -0.343759   
O570     O      0.838630000000     0.449370000000     0.619110000000    -0.511092   
O571     O      0.765940000000     0.508230000000     0.075650000000    -0.608061   
O572     O      0.816050000000     0.514580000000     0.042210000000    -0.471697   
O573     O      0.751310000000     0.077240000000     0.069250000000    -0.47735    
O574     O      0.852510000000     0.526750000000     0.598480000000    -0.62409    
O575     O      0.804890000000     0.084370000000     0.033660000000    -0.620748   
O576     O      0.799490000000     0.518470000000     0.633540000000    -0.475152   
O577     O      0.544120000000     0.649060000000     0.253640000000    -0.366343   
O578     O      0.047690000000     0.593770000000     0.227780000000    -0.357772   
O579     O      0.635420000000     0.587850000000     0.374190000000    -0.361343   
O580     O      0.599140000000     0.095530000000     0.411170000000    -0.354753   
O581     O      0.629320000000     0.578980000000     0.267350000000    -0.357482   
O582     O      0.591730000000     0.064780000000     0.233910000000    -0.361603   
O583     O      0.545500000000     0.673240000000     0.356970000000    -0.367032   
O584     O      0.052550000000     0.639780000000     0.400300000000    -0.357378   
O585     O      0.587420000000     0.675560000000     0.301260000000    -0.343803   
O586     O      0.014870000000     0.675550000000     0.299060000000    -0.516377   
O587     O      0.648290000000     0.620890000000     0.316910000000    -0.50873    
O588     O      0.655910000000     0.044570000000     0.323350000000    -0.342457   
O589     O      0.581590000000     0.605850000000     0.285400000000    -0.459486   
O590     O      0.583520000000     0.619790000000     0.346040000000    -0.608882   
O591     O      0.971290000000     0.087750000000     0.379640000000    -0.361378   
O592     O      0.010020000000     0.593760000000     0.414220000000    -0.360441   
O593     O      0.055580000000     0.973360000000     0.297410000000    -0.36616    
O594     O      0.554110000000     0.010340000000     0.248900000000    -0.35715    
O595     O      0.062720000000     0.001120000000     0.398620000000    -0.372698   
O596     O      0.556750000000     0.050160000000     0.422630000000    -0.357956   
O597     O      0.968080000000     0.058060000000     0.277010000000    -0.36256    
O598     O      0.005110000000     0.542380000000     0.243490000000    -0.365716   
O599     O      0.959860000000     0.026370000000     0.342540000000    -0.51124    
O600     O      0.944990000000     0.600410000000     0.321190000000    -0.327673   
O601     O      0.013390000000     0.975550000000     0.354620000000    -0.33999    
O602     O      0.589130000000     0.970940000000     0.347170000000    -0.513662   
O603     O      0.021100000000     0.043980000000     0.366650000000    -0.605795   
O604     O      0.018890000000     0.027930000000     0.306420000000    -0.461614   
O605     O      0.017940000000     0.613190000000     0.350920000000    -0.475952   
O606     O      0.586540000000     0.036360000000     0.299020000000    -0.624679   
O607     O      0.016000000000     0.596170000000     0.286440000000    -0.623579   
O608     O      0.588110000000     0.051140000000     0.363870000000    -0.477953   
O609     O      0.984370000000     0.804310000000     0.145850000000    -0.370879   
O610     O      0.508360000000     0.772550000000     0.117560000000    -0.360695   
O611     O      0.991650000000     0.895650000000     0.007790000000    -0.364216   
O612     O      0.021190000000     0.934460000000     0.531510000000    -0.359709   
O613     O      0.975610000000     0.793380000000     0.024760000000    -0.366968   
O614     O      0.998200000000     0.759710000000     0.553620000000    -0.354377   
O615     O      0.999370000000     0.908130000000     0.138070000000    -0.359608   
O616     O      0.525360000000     0.948220000000     0.096950000000    -0.3602     
O617     O      0.951170000000     0.861160000000     0.120170000000    -0.343785   
O618     O      0.498910000000     0.868270000000     0.175570000000    -0.512307   
O619     O      0.947080000000     0.854690000000     0.041050000000    -0.512428   
O620     O      0.989690000000     0.839940000000     0.473980000000    -0.331026   
O621     O      0.994400000000     0.818290000000     0.081520000000    -0.468654   
O622     O      0.000550000000     0.879710000000     0.075260000000    -0.609876   
O623     O      0.606390000000     0.900800000000     0.631820000000    -0.369404   
O624     O      0.588830000000     0.941090000000     0.099460000000    -0.356111   
O625     O      0.591800000000     0.783090000000     0.515000000000    -0.368309   
O626     O      0.065830000000     0.751640000000     0.548620000000    -0.359596   
O627     O      0.603900000000     0.887730000000     0.506250000000    -0.35932    
O628     O      0.086840000000     0.927500000000     0.536440000000    -0.362012   
O629     O      0.602410000000     0.796330000000     0.637720000000    -0.36597    
O630     O      0.576760000000     0.764030000000     0.110360000000    -0.351367   
O631     O      0.641580000000     0.845420000000     0.611730000000    -0.513889   
O632     O      0.597830000000     0.854820000000     0.176290000000    -0.33707    
O633     O      0.637460000000     0.832630000000     0.529700000000    -0.341054   
O634     O      0.088860000000     0.832840000000     0.470920000000    -0.514112   
O635     O      0.593320000000     0.873140000000     0.569890000000    -0.609923   
O636     O      0.587910000000     0.812380000000     0.576430000000    -0.470151   
O637     O      0.552500000000     0.891230000000     0.120650000000    -0.480285   
O638     O      0.038140000000     0.809030000000     0.527450000000    -0.622144   
O639     O      0.545460000000     0.825240000000     0.127290000000    -0.62286    
O640     O      0.045120000000     0.875140000000     0.520950000000    -0.477585   
O641     O      0.832440000000     0.643190000000     0.053590000000    -0.360011   
O642     O      0.866330000000     0.609240000000     0.534090000000    -0.363793   
O643     O      0.805090000000     0.557280000000     0.187610000000    -0.367904   
O644     O      0.756280000000     0.048920000000     0.173990000000    -0.354344   
O645     O      0.884990000000     0.577720000000     0.129920000000    -0.37325    
O646     O      0.896550000000     0.072430000000     0.077930000000    -0.355722   
O647     O      0.740640000000     0.630640000000     0.100790000000    -0.349807   
O648     O      0.722180000000     0.587210000000     0.627320000000    -0.365178   
O649     O      0.800030000000     0.658930000000     0.112960000000    -0.341573   
O650     O      0.767930000000     0.653460000000     0.543060000000    -0.516699   
O651     O      0.839590000000     0.612380000000     0.166500000000    -0.51452    
O652     O      0.863910000000     0.038230000000     0.179380000000    -0.331732   
O653     O      0.837510000000     0.596480000000     0.094570000000    -0.469143   
O654     O      0.787530000000     0.590020000000     0.128020000000    -0.61035    
O655     O      0.716790000000     0.037750000000     0.536600000000    -0.366943   
O656     O      0.707050000000     0.535330000000     0.589330000000    -0.356626   
O657     O      0.861370000000     0.973470000000     0.563220000000    -0.369927   
O658     O      0.882700000000     0.015100000000     0.044040000000    -0.35741    
O659     O      0.776820000000     0.961120000000     0.620300000000    -0.358007   
O660     O      0.740460000000     0.997090000000     0.140300000000    -0.359869   
O661     O      0.801600000000     0.043820000000     0.481080000000    -0.365279   
O662     O      0.850220000000     0.551660000000     0.495560000000    -0.360033   
O663     O      0.759200000000     0.994250000000     0.503400000000    -0.512724   
O664     O      0.743690000000     0.569970000000     0.486360000000    -0.331817   
O665     O      0.797010000000     0.948630000000     0.552250000000    -0.343402   
O666     O      0.838410000000     0.950670000000     0.124410000000    -0.510694   
O667     O      0.766280000000     0.008460000000     0.572120000000    -0.606942   
O668     O      0.816280000000     0.015890000000     0.538890000000    -0.470232   
O669     O      0.751540000000     0.577620000000     0.568120000000    -0.477233   
O670     O      0.852200000000     0.027440000000     0.101480000000    -0.623557   
O671     O      0.805080000000     0.585920000000     0.532680000000    -0.620637   
O672     O      0.799130000000     0.020360000000     0.136700000000    -0.474445   
O673     O      0.547350000000     0.644320000000     0.752970000000    -0.366625   
O674     O      0.045610000000     0.595640000000     0.727060000000    -0.357708   
O675     O      0.638050000000     0.582560000000     0.873900000000    -0.360976   
O676     O      0.602260000000     0.092250000000     0.910930000000    -0.354349   
O677     O      0.630690000000     0.572450000000     0.767080000000    -0.356989   
O678     O      0.592540000000     0.058440000000     0.734300000000    -0.361638   
O679     O      0.550960000000     0.670380000000     0.855880000000    -0.366672   
O680     O      0.051030000000     0.638780000000     0.900310000000    -0.357309   
O681     O      0.591670000000     0.670580000000     0.799390000000    -0.343379   
O682     O      0.012080000000     0.675570000000     0.799920000000    -0.516356   
O683     O      0.651490000000     0.614230000000     0.815960000000    -0.508558   
O684     O      0.656990000000     0.037920000000     0.823420000000    -0.342949   
O685     O      0.584010000000     0.600690000000     0.785210000000    -0.459422   
O686     O      0.586830000000     0.615600000000     0.845510000000    -0.608895   
O687     O      0.970540000000     0.085550000000     0.879440000000    -0.36114    
O688     O      0.009450000000     0.591670000000     0.913790000000    -0.360055   
O689     O      0.055960000000     0.974170000000     0.794640000000    -0.366721   
O690     O      0.553880000000     0.005460000000     0.750590000000    -0.356933   
O691     O      0.063210000000     0.000220000000     0.896240000000    -0.372188   
O692     O      0.559140000000     0.048240000000     0.923550000000    -0.358374   
O693     O      0.967000000000     0.057870000000     0.776290000000    -0.362356   
O694     O      0.003980000000     0.543170000000     0.742290000000    -0.365984   
O695     O      0.959930000000     0.024580000000     0.841270000000    -0.511583   
O696     O      0.943560000000     0.598710000000     0.821560000000    -0.327468   
O697     O      0.014510000000     0.974490000000     0.852100000000    -0.339762   
O698     O      0.588050000000     0.966320000000     0.849290000000    -0.512535   
O699     O      0.021030000000     0.043000000000     0.865270000000    -0.605735   
O700     O      0.018600000000     0.027910000000     0.804830000000    -0.461591   
O701     O      0.016560000000     0.612350000000     0.850770000000    -0.475908   
O702     O      0.587300000000     0.031350000000     0.799980000000    -0.624884   
O703     O      0.014370000000     0.596400000000     0.786020000000    -0.623472   
O704     O      0.589750000000     0.047220000000     0.864510000000    -0.477569   
O705     O      0.981940000000     0.806300000000     0.643250000000    -0.370971   
O706     O      0.506000000000     0.766870000000     0.621360000000    -0.361423   
O707     O      0.992270000000     0.898690000000     0.505660000000    -0.3639     
O708     O      0.021300000000     0.931410000000     0.032710000000    -0.359775   
O709     O      0.975230000000     0.796380000000     0.522910000000    -0.364762   
O710     O      0.998680000000     0.756850000000     0.055570000000    -0.354414   
O711     O      0.996610000000     0.910330000000     0.636570000000    -0.359562   
O712     O      0.520150000000     0.942620000000     0.599940000000    -0.36081    
O713     O      0.948840000000     0.863180000000     0.616600000000    -0.344159   
O714     O      0.498050000000     0.862460000000     0.679860000000    -0.512003   
O715     O      0.946820000000     0.857980000000     0.537200000000    -0.512505   
O716     O      0.988090000000     0.837260000000     0.976290000000    -0.327933   
O717     O      0.993270000000     0.820900000000     0.579160000000    -0.469147   
O718     O      0.999220000000     0.882420000000     0.573500000000    -0.60964    
O719     O      0.609210000000     0.905100000000     0.132800000000    -0.369171   
O720     O      0.584020000000     0.936370000000     0.599450000000    -0.355462   
O721     O      0.597350000000     0.787800000000     0.014060000000    -0.369492   
O722     O      0.065990000000     0.748320000000     0.049660000000    -0.359269   
O723     O      0.611790000000     0.892160000000     0.006630000000    -0.360538   
O724     O      0.086880000000     0.924000000000     0.034810000000    -0.360368   
O725     O      0.604650000000     0.800260000000     0.136770000000    -0.364236   
O726     O      0.574420000000     0.759470000000     0.612320000000    -0.351619   
O727     O      0.644930000000     0.849850000000     0.114530000000    -0.51388    
O728     O      0.597440000000     0.851220000000     0.676090000000    -0.335393   
O729     O      0.643760000000     0.836270000000     0.032340000000    -0.343254   
O730     O      0.086980000000     0.828540000000     0.970530000000    -0.512085   
O731     O      0.598720000000     0.877690000000     0.069990000000    -0.609412   
O732     O      0.592100000000     0.817010000000     0.076070000000    -0.470131   
O733     O      0.549010000000     0.886160000000     0.622550000000    -0.480522   
O734     O      0.037900000000     0.805750000000     0.028650000000    -0.621842   
O735     O      0.543170000000     0.820060000000     0.629620000000    -0.622548   
O736     O      0.045040000000     0.871790000000     0.021430000000    -0.477693   
O737     O      0.832610000000     0.644130000000     0.554250000000    -0.359063   
O738     O      0.866120000000     0.607730000000     0.034410000000    -0.364899   
O739     O      0.805820000000     0.553060000000     0.685650000000    -0.368109   
O740     O      0.757020000000     0.045140000000     0.671840000000    -0.353948   
O741     O      0.885100000000     0.576870000000     0.628420000000    -0.373263   
O742     O      0.896780000000     0.072830000000     0.576370000000    -0.355549   
O743     O      0.740840000000     0.629750000000     0.601250000000    -0.349778   
O744     O      0.721630000000     0.588860000000     0.127810000000    -0.36374    
O745     O      0.800450000000     0.657690000000     0.614530000000    -0.341713   
O746     O      0.767700000000     0.652100000000     0.041620000000    -0.516775   
O747     O      0.839640000000     0.609220000000     0.666830000000    -0.514421   
O748     O      0.864760000000     0.034930000000     0.676310000000    -0.332098   
O749     O      0.837800000000     0.595980000000     0.593910000000    -0.469313   
O750     O      0.787900000000     0.588430000000     0.627200000000    -0.610165   
O751     O      0.716570000000     0.036680000000     0.038980000000    -0.367232   
O752     O      0.706690000000     0.535910000000     0.091750000000    -0.357078   
O753     O      0.861100000000     0.972990000000     0.068030000000    -0.370216   
O754     O      0.883020000000     0.016410000000     0.540800000000    -0.356981   
O755     O      0.776990000000     0.962570000000     0.125800000000    -0.358611   
O756     O      0.740400000000     0.995230000000     0.635980000000    -0.359866   
O757     O      0.801470000000     0.040830000000     0.983460000000    -0.363498   
O758     O      0.850080000000     0.549190000000     0.997730000000    -0.357714   
O759     O      0.759060000000     0.991690000000     0.007520000000    -0.515802   
O760     O      0.743550000000     0.566670000000     0.987700000000    -0.329811   
O761     O      0.796470000000     0.947970000000     0.057780000000    -0.343685   
O762     O      0.838650000000     0.949400000000     0.619140000000    -0.510973   
O763     O      0.765960000000     0.008220000000     0.075630000000    -0.606489   
O764     O      0.816070000000     0.014570000000     0.042190000000    -0.471023   
O765     O      0.751280000000     0.577250000000     0.069270000000    -0.477218   
O766     O      0.852540000000     0.026770000000     0.598480000000    -0.623891   
O767     O      0.804860000000     0.584380000000     0.033690000000    -0.620432   
O768     O      0.799520000000     0.018510000000     0.633540000000    -0.474424   
Zr1      Zr     0.546330000000     0.139580000000     0.310500000000     1.29108    
Zr2      Zr     0.114420000000     0.572120000000     0.323780000000     1.29561    
Zr3      Zr     0.488970000000     0.074760000000     0.327330000000     1.29045    
Zr4      Zr     0.055920000000     0.508780000000     0.342460000000     1.2908     
Zr5      Zr     0.549260000000     0.563460000000     0.268000000000     1.27667    
Zr6      Zr     0.054440000000     0.085890000000     0.383020000000     1.2663     
Zr7      Zr     0.004810000000     0.352870000000     0.124600000000     1.29132    
Zr8      Zr     0.498250000000     0.347840000000     0.531070000000     1.29301    
Zr9      Zr     0.089740000000     0.342910000000     0.120140000000     1.29572    
Zr10     Zr     0.583460000000     0.338580000000     0.526710000000     1.29091    
Zr11     Zr     0.037890000000     0.288210000000     0.580450000000     1.26462    
Zr12     Zr     0.554680000000     0.411020000000     0.067340000000     1.2694     
Zr13     Zr     0.289290000000     0.115000000000     0.578740000000     1.28381    
Zr14     Zr     0.333420000000     0.556710000000     0.135790000000     1.30203    
Zr15     Zr     0.270090000000     0.042140000000     0.529880000000     1.29497    
Zr16     Zr     0.317340000000     0.485820000000     0.082850000000     1.2931     
Zr17     Zr     0.348780000000     0.558520000000     0.553390000000     1.27018    
Zr18     Zr     0.255740000000     0.037620000000     0.111240000000     1.26318    
Zr19     Zr     0.549870000000     0.135910000000     0.809980000000     1.29091    
Zr20     Zr     0.113450000000     0.573590000000     0.822030000000     1.29535    
Zr21     Zr     0.490980000000     0.073040000000     0.828450000000     1.28982    
Zr22     Zr     0.056250000000     0.508840000000     0.840210000000     1.29071    
Zr23     Zr     0.550450000000     0.558940000000     0.768860000000     1.27732    
Zr24     Zr     0.053780000000     0.085230000000     0.882090000000     1.26598    
Zr25     Zr     0.002380000000     0.355220000000     0.622700000000     1.29203    
Zr26     Zr     0.505060000000     0.354110000000     0.026700000000     1.29136    
Zr27     Zr     0.087540000000     0.345880000000     0.620470000000     1.29878    
Zr28     Zr     0.590100000000     0.343340000000     0.026290000000     1.28848    
Zr29     Zr     0.038830000000     0.285270000000     0.081800000000     1.26373    
Zr30     Zr     0.548720000000     0.405790000000     0.569120000000     1.26983    
Zr31     Zr     0.287620000000     0.111330000000     0.077970000000     1.28589    
Zr32     Zr     0.333470000000     0.561500000000     0.639240000000     1.30276    
Zr33     Zr     0.271290000000     0.040600000000     0.025100000000     1.29085    
Zr34     Zr     0.314060000000     0.488420000000     0.590470000000     1.29263    
Zr35     Zr     0.349330000000     0.559060000000     0.049840000000     1.26796    
Zr36     Zr     0.255080000000     0.044420000000     0.616110000000     1.26552    
Zr37     Zr     0.546310000000     0.639620000000     0.310510000000     1.29106    
Zr38     Zr     0.114440000000     0.072070000000     0.323740000000     1.29562    
Zr39     Zr     0.488940000000     0.574790000000     0.327320000000     1.29028    
Zr40     Zr     0.055940000000     0.008740000000     0.342430000000     1.29265    
Zr41     Zr     0.549270000000     0.063430000000     0.267980000000     1.27677    
Zr42     Zr     0.054400000000     0.585930000000     0.383040000000     1.2662     
Zr43     Zr     0.004800000000     0.852880000000     0.124590000000     1.29133    
Zr44     Zr     0.498250000000     0.847810000000     0.531080000000     1.29295    
Zr45     Zr     0.089730000000     0.842910000000     0.120140000000     1.29565    
Zr46     Zr     0.583450000000     0.838520000000     0.526710000000     1.29079    
Zr47     Zr     0.037860000000     0.788190000000     0.580470000000     1.26465    
Zr48     Zr     0.554680000000     0.911000000000     0.067320000000     1.26932    
Zr49     Zr     0.289250000000     0.614980000000     0.578760000000     1.28389    
Zr50     Zr     0.333440000000     0.056700000000     0.135780000000     1.30222    
Zr51     Zr     0.270050000000     0.542130000000     0.529890000000     1.2943     
Zr52     Zr     0.317360000000     0.985810000000     0.082840000000     1.29039    
Zr53     Zr     0.348820000000     0.058530000000     0.553390000000     1.27038    
Zr54     Zr     0.255720000000     0.537630000000     0.111250000000     1.26243    
Zr55     Zr     0.549840000000     0.635920000000     0.810000000000     1.2909     
Zr56     Zr     0.113470000000     0.073580000000     0.821990000000     1.29545    
Zr57     Zr     0.490940000000     0.573060000000     0.828460000000     1.2896     
Zr58     Zr     0.056290000000     0.008820000000     0.840190000000     1.2926     
Zr59     Zr     0.550470000000     0.058930000000     0.768840000000     1.27739    
Zr60     Zr     0.053740000000     0.585250000000     0.882110000000     1.26592    
Zr61     Zr     0.002370000000     0.855210000000     0.622710000000     1.29193    
Zr62     Zr     0.505060000000     0.854090000000     0.026690000000     1.29129    
Zr63     Zr     0.087530000000     0.845840000000     0.620460000000     1.29884    
Zr64     Zr     0.590100000000     0.843310000000     0.026290000000     1.28841    
Zr65     Zr     0.038820000000     0.785260000000     0.081800000000     1.26379    
Zr66     Zr     0.548740000000     0.905750000000     0.569110000000     1.26955    
Zr67     Zr     0.287590000000     0.611340000000     0.077980000000     1.28603    
Zr68     Zr     0.333500000000     0.061510000000     0.639230000000     1.30283    
Zr69     Zr     0.271260000000     0.540600000000     0.025120000000     1.2902     
Zr70     Zr     0.314090000000     0.988430000000     0.590480000000     1.29003    
Zr71     Zr     0.349360000000     0.059050000000     0.049830000000     1.26801    
Zr72     Zr     0.255050000000     0.544400000000     0.616120000000     1.26454    
Zr73     Zr     0.049100000000     0.133510000000     0.309790000000     1.29079    
Zr74     Zr     0.612750000000     0.579090000000     0.322480000000     1.29484    
Zr75     Zr     0.990560000000     0.070350000000     0.328510000000     1.29034    
Zr76     Zr     0.555450000000     0.514070000000     0.339230000000     1.29065    
Zr77     Zr     0.050730000000     0.556040000000     0.269730000000     1.27749    
Zr78     Zr     0.552670000000     0.089840000000     0.382220000000     1.26624    
Zr79     Zr     0.506280000000     0.362890000000     0.119870000000     1.29185    
Zr80     Zr     0.999210000000     0.347300000000     0.529690000000     1.29302    
Zr81     Zr     0.591400000000     0.352760000000     0.119650000000     1.298      
Zr82     Zr     0.084420000000     0.337480000000     0.527040000000     1.29087    
Zr83     Zr     0.538280000000     0.289720000000     0.581800000000     1.2642     
Zr84     Zr     0.050610000000     0.401230000000     0.069820000000     1.26998    
Zr85     Zr     0.789930000000     0.115640000000     0.577820000000     1.28414    
Zr86     Zr     0.833350000000     0.563350000000     0.139620000000     1.30359    
Zr87     Zr     0.770490000000     0.043360000000     0.528200000000     1.29531    
Zr88     Zr     0.813830000000     0.489250000000     0.092500000000     1.29282    
Zr89     Zr     0.849240000000     0.559130000000     0.552020000000     1.2703     
Zr90     Zr     0.754890000000     0.046050000000     0.116670000000     1.26369    
Zr91     Zr     0.047020000000     0.133960000000     0.809710000000     1.29108    
Zr92     Zr     0.614780000000     0.573670000000     0.822440000000     1.29467    
Zr93     Zr     0.989730000000     0.069420000000     0.827850000000     1.29053    
Zr94     Zr     0.555930000000     0.510630000000     0.840840000000     1.29014    
Zr95     Zr     0.049610000000     0.557180000000     0.768300000000     1.27691    
Zr96     Zr     0.555480000000     0.087230000000     0.882470000000     1.26658    
Zr97     Zr     0.503200000000     0.357100000000     0.623880000000     1.29202    
Zr98     Zr     0.999240000000     0.344290000000     0.031720000000     1.29172    
Zr99     Zr     0.588380000000     0.348320000000     0.619890000000     1.29841    
Zr100    Zr     0.084240000000     0.333870000000     0.026720000000     1.28793    
Zr101    Zr     0.541940000000     0.295180000000     0.079150000000     1.26431    
Zr102    Zr     0.049290000000     0.404330000000     0.569660000000     1.26944    
Zr103    Zr     0.789620000000     0.115530000000     0.077780000000     1.28464    
Zr104    Zr     0.833730000000     0.561350000000     0.637820000000     1.30341    
Zr105    Zr     0.770300000000     0.041640000000     0.030550000000     1.29229    
Zr106    Zr     0.814120000000     0.488850000000     0.588280000000     1.29264    
Zr107    Zr     0.849010000000     0.558250000000     0.053960000000     1.2689     
Zr108    Zr     0.755290000000     0.044880000000     0.614430000000     1.26453    
Zr109    Zr     0.049080000000     0.633550000000     0.309810000000     1.29066    
Zr110    Zr     0.612770000000     0.079040000000     0.322440000000     1.2949     
Zr111    Zr     0.990540000000     0.570370000000     0.328510000000     1.29031    
Zr112    Zr     0.555480000000     0.014030000000     0.339210000000     1.29269    
Zr113    Zr     0.050730000000     0.056000000000     0.269710000000     1.27743    
Zr114    Zr     0.552630000000     0.589880000000     0.382230000000     1.26616    
Zr115    Zr     0.506270000000     0.862890000000     0.119860000000     1.29176    
Zr116    Zr     0.999200000000     0.847270000000     0.529690000000     1.293      
Zr117    Zr     0.591390000000     0.852750000000     0.119650000000     1.29818    
Zr118    Zr     0.084400000000     0.837420000000     0.527040000000     1.29081    
Zr119    Zr     0.538260000000     0.789690000000     0.581810000000     1.26418    
Zr120    Zr     0.050610000000     0.901220000000     0.069800000000     1.26981    
Zr121    Zr     0.789890000000     0.615620000000     0.577840000000     1.28415    
Zr122    Zr     0.833370000000     0.063350000000     0.139600000000     1.30359    
Zr123    Zr     0.770450000000     0.543340000000     0.528210000000     1.29452    
Zr124    Zr     0.813850000000     0.989250000000     0.092480000000     1.29004    
Zr125    Zr     0.849280000000     0.059140000000     0.552020000000     1.27037    
Zr126    Zr     0.754870000000     0.546050000000     0.116690000000     1.26282    
Zr127    Zr     0.047000000000     0.633980000000     0.809730000000     1.29091    
Zr128    Zr     0.614820000000     0.073660000000     0.822410000000     1.29476    
Zr129    Zr     0.989700000000     0.569440000000     0.827860000000     1.29029    
Zr130    Zr     0.555970000000     0.010610000000     0.840820000000     1.29194    
Zr131    Zr     0.049630000000     0.057160000000     0.768280000000     1.27691    
Zr132    Zr     0.555440000000     0.587250000000     0.882490000000     1.26661    
Zr133    Zr     0.503200000000     0.857080000000     0.623880000000     1.29207    
Zr134    Zr     0.999230000000     0.844280000000     0.031700000000     1.29187    
Zr135    Zr     0.588370000000     0.848270000000     0.619890000000     1.29833    
Zr136    Zr     0.084230000000     0.833850000000     0.026710000000     1.28794    
Zr137    Zr     0.541930000000     0.795180000000     0.079150000000     1.26431    
Zr138    Zr     0.049300000000     0.904300000000     0.569650000000     1.26954    
Zr139    Zr     0.789590000000     0.615540000000     0.077810000000     1.2847     
Zr140    Zr     0.833770000000     0.061390000000     0.637810000000     1.3034     
Zr141    Zr     0.770270000000     0.541650000000     0.030580000000     1.29153    
Zr142    Zr     0.814150000000     0.988870000000     0.588300000000     1.28991    
Zr143    Zr     0.849030000000     0.058240000000     0.053940000000     1.26873    
Zr144    Zr     0.755260000000     0.544850000000     0.614440000000     1.26374    


