data_structure

_audit_creation_method RASPA-1.0
_audit_creation_date 2023-6-4
_audit_author_name 'Poobodin Mano'

_cell_length_a    25.3415
_cell_length_b    28.6318
_cell_length_c    28.644
_cell_angle_alpha 82.7384
_cell_angle_beta  96.3427
_cell_angle_gamma 119.442
_cell_volume      17925.9

_symmetry_cell_setting          triclinic
_symmetry_space_group_name_Hall 'P 1'
_symmetry_space_group_name_H-M  'P 1'
_symmetry_Int_Tables_number     1

_symmetry_equiv_pos_as_xyz 'x,y,z'

loop_
_atom_site_label
_atom_site_type_symbol
_atom_site_fract_x
_atom_site_fract_y
_atom_site_fract_z
_atom_site_charge
C1       C      0.168550000000     0.152700000000     0.982040000000     0.398089   
C2       C      0.909880000000     0.938350000000     0.822850000000     0.391222   
C3       C      0.025590000000     0.159070000000     0.960560000000     0.39606    
C4       C      0.095540000000     0.927130000000     0.882130000000     0.396465   
C5       C      0.973030000000     0.802580000000     0.997000000000     0.392564   
C6       C      0.907900000000     0.039230000000     0.079470000000     0.397409   
C7       C      0.820390000000     0.825790000000     0.960530000000     0.377976   
C8       C      0.074630000000     0.014820000000     0.138700000000     0.393693   
C9       C      0.070030000000     0.858800000000     0.440290000000     0.391538   
C10      C      0.801270000000     0.946570000000     0.421590000000     0.377573   
C11      C      0.072120000000     0.008250000000     0.327720000000     0.39082    
C12      C      0.826910000000     0.830690000000     0.555180000000     0.385491   
C13      C      0.925990000000     0.943640000000     0.637100000000     0.391771   
C14      C      0.196790000000     0.122290000000     0.445410000000     0.391352   
C15      C      0.930520000000     0.093990000000     0.519260000000     0.400212   
C16      C      0.196270000000     0.002990000000     0.544880000000     0.389763   
C17      C      0.079110000000     0.357410000000     0.957330000000     0.393983   
C18      C      0.837580000000     0.438410000000     0.068980000000     0.396857   
C19      C      0.875620000000     0.317640000000     0.900770000000     0.388816   
C20      C      0.041630000000     0.469260000000     0.147800000000     0.389691   
C21      C      0.124720000000     0.647150000000     0.050720000000     0.388181   
C22      C      0.964430000000     0.486560000000     0.810270000000     0.392373   
C23      C      0.935260000000     0.603280000000     0.999600000000     0.392029   
C24      C      0.162570000000     0.523720000000     0.886040000000     0.37616    
C25      C      0.960500000000     0.293460000000     0.513190000000     0.383878   
C26      C      0.838350000000     0.519220000000     0.460360000000     0.388815   
C27      C      0.856380000000     0.313270000000     0.405700000000     0.402279   
C28      C      0.926500000000     0.482360000000     0.623840000000     0.392215   
C29      C      0.123490000000     0.628940000000     0.554780000000     0.374172   
C30      C      0.069820000000     0.473460000000     0.330830000000     0.395818   
C31      C      0.025350000000     0.658910000000     0.439400000000     0.381236   
C32      C      0.152890000000     0.445940000000     0.469330000000     0.3728     
C33      C      0.310090000000     0.966220000000     0.927730000000     0.387118   
C34      C      0.561430000000     0.863490000000     0.936150000000     0.397001   
C35      C      0.318880000000     0.840630000000     0.043540000000     0.380744   
C36      C      0.570570000000     0.014850000000     0.825990000000     0.389435   
C37      C      0.687540000000     0.130720000000     0.916010000000     0.385665   
C38      C      0.443720000000     0.960350000000     0.143730000000     0.383145   
C39      C      0.698530000000     0.002030000000     0.041640000000     0.38544    
C40      C      0.458650000000     0.110200000000     0.045970000000     0.388521   
C41      C      0.512470000000     0.148910000000     0.476110000000     0.39541    
C42      C      0.344500000000     0.809100000000     0.504530000000     0.369201   
C43      C      0.421730000000     0.034970000000     0.585980000000     0.384289   
C44      C      0.417580000000     0.935260000000     0.333200000000     0.388662   
C45      C      0.589490000000     0.911740000000     0.385730000000     0.392617   
C46      C      0.609210000000     0.029920000000     0.642890000000     0.387577   
C47      C      0.504110000000     0.807760000000     0.508730000000     0.396793   
C48      C      0.690900000000     0.133040000000     0.493970000000     0.376408   
C49      C      0.487580000000     0.308820000000     0.034220000000     0.380081   
C50      C      0.354270000000     0.525300000000     0.992030000000     0.381273   
C51      C      0.373450000000     0.314060000000     0.954060000000     0.381568   
C52      C      0.501680000000     0.524140000000     0.144830000000     0.399088   
C53      C      0.656270000000     0.654800000000     0.050190000000     0.390689   
C54      C      0.570190000000     0.477200000000     0.842270000000     0.398506   
C55      C      0.521290000000     0.662240000000     0.944790000000     0.385003   
C56      C      0.665070000000     0.449470000000     0.979490000000     0.371745   
C57      C      0.577100000000     0.349290000000     0.470810000000     0.392921   
C58      C      0.358030000000     0.450470000000     0.573720000000     0.383148   
C59      C      0.413970000000     0.308230000000     0.445720000000     0.356192   
C60      C      0.563460000000     0.478940000000     0.656970000000     0.396586   
C61      C      0.649950000000     0.640340000000     0.567810000000     0.393917   
C62      C      0.470980000000     0.482140000000     0.322390000000     0.397016   
C63      C      0.451900000000     0.609470000000     0.507920000000     0.389992   
C64      C      0.668670000000     0.529790000000     0.382080000000     0.39708    
C65      C      0.626800000000     0.532740000000     0.773450000000    -0.0139671  
C66      C      0.586980000000     0.432230000000     0.781930000000    -0.0253739  
C67      C      0.590970000000     0.528470000000     0.726740000000    -0.0064417  
C68      C      0.598660000000     0.441840000000     0.728670000000     0.0364479  
C69      C      0.491300000000     0.462350000000     0.247630000000    -0.0109756  
C70      C      0.436440000000     0.515310000000     0.246540000000    -0.0266618  
C71      C      0.542720000000     0.510970000000     0.223040000000    -0.00980372 
C72      C      0.485000000000     0.560710000000     0.214970000000     0.0318166  
C73      C      0.429310000000     0.680290000000     0.470590000000    -0.0124558  
C74      C      0.448290000000     0.672920000000     0.557120000000    -0.0252881  
C75      C      0.489600000000     0.732280000000     0.466560000000    -0.0104217  
C76      C      0.507960000000     0.726760000000     0.554170000000     0.0344164  
C77      C      0.570520000000     0.278530000000     0.424430000000    -0.0110438  
C78      C      0.590890000000     0.274880000000     0.511120000000    -0.0253636  
C79      C      0.508930000000     0.226150000000     0.429650000000    -0.0174369  
C80      C      0.527040000000     0.227780000000     0.516790000000     0.0362728  
C81      C      0.649150000000     0.011270000000     0.723100000000    -0.0119218  
C82      C      0.624130000000     0.085140000000     0.708090000000    -0.025995   
C83      C      0.608010000000     0.987490000000     0.765290000000    -0.0154643  
C84      C      0.575390000000     0.058950000000     0.744380000000     0.0358443  
C85      C      0.407230000000     0.887430000000     0.263170000000    -0.0133101  
C86      C      0.371830000000     0.954720000000     0.256320000000    -0.0241756  
C87      C      0.447940000000     0.917210000000     0.221930000000    -0.0115297  
C88      C      0.406080000000     0.982390000000     0.210670000000     0.0307293  
C89      C      0.538570000000     0.744640000000     0.889520000000    -0.0169553  
C90      C      0.519080000000     0.738570000000     0.974610000000    -0.0254727  
C91      C      0.584740000000     0.806370000000     0.892830000000    -0.0140617  
C92      C      0.576450000000     0.791980000000     0.979740000000     0.0392624  
C93      C      0.446850000000     0.219090000000     0.006420000000    -0.0171832  
C94      C      0.507860000000     0.241370000000     0.083810000000    -0.0286062  
C95      C      0.406060000000     0.162010000000     0.027550000000    -0.00917578 
C96      C      0.474470000000     0.180110000000     0.099960000000     0.0366938  
C97      C      0.827940000000     0.218250000000     0.422230000000    -0.0150939  
C98      C      0.747750000000     0.245600000000     0.400000000000    -0.0220584  
C99      C      0.771980000000     0.165040000000     0.438320000000    -0.0113341  
C100     C      0.720270000000     0.219950000000     0.448010000000     0.0369055  
C101     C      0.232230000000     0.685450000000     0.571720000000    -0.0124036  
C102     C      0.179960000000     0.701760000000     0.496910000000    -0.0241955  
C103     C      0.282700000000     0.743680000000     0.565260000000    -0.0145605  
C104     C      0.233440000000     0.759180000000     0.489820000000     0.0287918  
C105     C      0.815570000000     0.585300000000     0.410810000000    -0.0113039  
C106     C      0.755970000000     0.482220000000     0.399880000000    -0.0156824  
C107     C      0.776550000000     0.591740000000     0.367460000000    -0.00890379 
C108     C      0.728850000000     0.495870000000     0.353290000000     0.0327221  
C109     C      0.310590000000     0.494660000000     0.521690000000    -0.00850012 
C110     C      0.255680000000     0.394470000000     0.538880000000    -0.0221288  
C111     C      0.250400000000     0.493830000000     0.511560000000    -0.0161838  
C112     C      0.194260000000     0.392600000000     0.521700000000     0.030303   
C113     C      0.920490000000     0.529390000000     0.689300000000    -0.0107592  
C114     C      0.880670000000     0.431190000000     0.698070000000    -0.0242452  
C115     C      0.962430000000     0.535650000000     0.734120000000    -0.0174351  
C116     C      0.925610000000     0.434340000000     0.739370000000     0.034794   
C117     C      0.066560000000     0.516550000000     0.219520000000    -0.00997384 
C118     C      0.046390000000     0.419650000000     0.224390000000    -0.0279138  
C119     C      0.116500000000     0.526910000000     0.258170000000    -0.0144528  
C120     C      0.093340000000     0.432730000000     0.266650000000     0.0348594  
C121     C      0.844250000000     0.229010000000     0.870580000000    -0.0144541  
C122     C      0.771790000000     0.267100000000     0.868440000000    -0.0292832  
C123     C      0.793820000000     0.174000000000     0.892330000000    -0.0134411  
C124     C      0.725490000000     0.210620000000     0.855560000000     0.03397    
C125     C      0.268110000000     0.748170000000     0.082150000000    -0.0123423  
C126     C      0.208960000000     0.797330000000     0.054300000000    -0.0260247  
C127     C      0.206570000000     0.706580000000     0.102590000000    -0.0142118  
C128     C      0.162860000000     0.743680000000     0.033950000000     0.0304157  
C129     C      0.697940000000     0.388580000000     0.026880000000    -0.0219223  
C130     C      0.758380000000     0.491290000000     0.031870000000    -0.0202758  
C131     C      0.727160000000     0.383320000000     0.076410000000    -0.00623132 
C132     C      0.774670000000     0.478800000000     0.083450000000     0.0310146  
C133     C      0.327320000000     0.584040000000     0.934180000000    -0.0129738  
C134     C      0.262150000000     0.481540000000     0.940540000000    -0.0177143  
C135     C      0.270380000000     0.586000000000     0.909190000000    -0.00686341 
C136     C      0.236990000000     0.491090000000     0.891400000000     0.0317835  
C137     C      0.799140000000     0.750670000000     0.611510000000    -0.0117011  
C138     C      0.723880000000     0.783590000000     0.586990000000    -0.0253645  
C139     C      0.755400000000     0.695260000000     0.595300000000    -0.00751975 
C140     C      0.676450000000     0.724630000000     0.603780000000     0.0352447  
C141     C      0.347470000000     0.229440000000     0.398470000000    -0.0167384  
C142     C      0.351210000000     0.220160000000     0.487000000000    -0.0287737  
C143     C      0.295250000000     0.169780000000     0.406410000000    -0.014617   
C144     C      0.282860000000     0.198840000000     0.483230000000     0.0375059  
C145     C      0.692390000000     0.892360000000     0.436120000000    -0.00723319 
C146     C      0.728720000000     0.951840000000     0.358820000000    -0.0264458  
C147     C      0.634200000000     0.855000000000     0.408070000000    -0.0187     
C148     C      0.665660000000     0.914710000000     0.335890000000     0.0377673  
C149     C      0.363360000000     0.074400000000     0.542640000000    -0.00731513 
C150     C      0.335730000000     0.028170000000     0.625270000000    -0.024076   
C151     C      0.302440000000     0.073000000000     0.542420000000    -0.0187123  
C152     C      0.267950000000     0.998050000000     0.608430000000     0.0327789  
C153     C      0.050480000000     0.745500000000     0.389640000000    -0.0166821  
C154     C      0.042490000000     0.737250000000     0.478230000000    -0.0305438  
C155     C      0.095880000000     0.806990000000     0.392800000000    -0.0131301  
C156     C      0.098040000000     0.792320000000     0.479600000000     0.0402243  
C157     C      0.976640000000     0.222890000000     0.487130000000    -0.0156124  
C158     C      0.923210000000     0.204110000000     0.561870000000    -0.0272064  
C159     C      0.928730000000     0.168590000000     0.471950000000    -0.00421222 
C160     C      0.883220000000     0.143760000000     0.550160000000     0.0297658  
C161     C      0.882910000000     0.878650000000     0.758790000000    -0.0151689  
C162     C      0.874480000000     0.964020000000     0.745000000000    -0.0256704  
C163     C      0.920220000000     0.896960000000     0.715440000000    -0.00713888 
C164     C      0.862220000000     0.949640000000     0.693120000000     0.0358453  
C165     C      0.061820000000     0.050340000000     0.207060000000    -0.013462   
C166     C      0.098920000000     0.981230000000     0.216490000000    -0.0246455  
C167     C      0.092290000000     0.068190000000     0.255200000000    -0.00977995 
C168     C      0.129710000000     0.001890000000     0.264430000000     0.0319687  
C169     C      0.765510000000     0.720740000000     0.056870000000    -0.0124069  
C170     C      0.690750000000     0.752340000000     0.037430000000    -0.0267456  
C171     C      0.789100000000     0.738160000000     0.007030000000    -0.00992348 
C172     C      0.716070000000     0.775270000000     0.987720000000     0.0327028  
C173     C      0.293210000000     0.233260000000     0.921010000000    -0.020331   
C174     C      0.316400000000     0.235290000000     0.007620000000    -0.0222267  
C175     C      0.232460000000     0.230570000000     0.928700000000    -0.00605334 
C176     C      0.256700000000     0.234310000000     0.015000000000     0.0313994  
C177     C      0.768590000000     0.989720000000     0.102540000000    -0.0104633  
C178     C      0.807440000000     0.060500000000     0.031600000000    -0.0190282  
C179     C      0.829070000000     0.025090000000     0.129740000000    -0.00961358 
C180     C      0.859600000000     0.095560000000     0.065430000000     0.0262487  
C181     C      0.200080000000     0.913240000000     0.940130000000    -0.0102405  
C182     C      0.239590000000     0.978260000000     0.866920000000    -0.0292891  
C183     C      0.145770000000     0.875160000000     0.908980000000    -0.0158995  
C184     C      0.182160000000     0.939020000000     0.839320000000     0.0406598  
C185     C      0.893760000000     0.662440000000     0.964390000000    -0.00999854 
C186     C      0.915230000000     0.656990000000     0.050280000000    -0.0228102  
C187     C      0.940220000000     0.720960000000     0.958330000000    -0.011858   
C188     C      0.949810000000     0.719260000000     0.049840000000     0.031812   
C189     C      0.034130000000     0.241520000000     0.912820000000    -0.0127346  
C190     C      0.061330000000     0.241770000000     0.000970000000    -0.0264552  
C191     C      0.089470000000     0.298460000000     0.907320000000    -0.0117697  
C192     C      0.118600000000     0.294650000000     0.991440000000     0.0372775  
H1       H      0.029280000000     0.995650000000     0.863970000000     0.19372    
H2       H      0.920970000000     0.046210000000     0.987270000000     0.197238   
H3       H      0.916500000000     0.854310000000     0.021900000000     0.209198   
H4       H      0.134390000000     0.034140000000     0.043660000000     0.195901   
H5       H      0.841770000000     0.013290000000     0.911040000000     0.130802   
H6       H      0.772840000000     0.946330000000     0.986130000000     0.198329   
H7       H      0.820840000000     0.873420000000     0.095790000000     0.139208   
H8       H      0.968290000000     0.854600000000     0.135630000000     0.196174   
H9       H      0.128200000000     0.897540000000     0.041960000000     0.143135   
H10      H      0.205520000000     0.010600000000     0.009430000000     0.202495   
H11      H      0.162220000000     0.091850000000     0.857310000000     0.132333   
H12      H      0.980540000000     0.107040000000     0.813130000000     0.197611   
H13      H      0.032870000000     0.851560000000     0.138030000000     0.200265   
H14      H      0.245730000000     0.060750000000     0.969880000000     0.203254   
H15      H      0.047360000000     0.109020000000     0.827970000000     0.184683   
H16      H      0.752640000000     0.895850000000     0.028590000000     0.194381   
H17      H      0.857550000000     0.889830000000     0.444960000000     0.204937   
H18      H      0.071260000000     0.068360000000     0.395390000000     0.196819   
H19      H      0.003110000000     0.040450000000     0.574240000000     0.191645   
H20      H      0.070250000000     0.902260000000     0.521470000000     0.196542   
H21      H      0.942740000000     0.078030000000     0.363650000000     0.134546   
H22      H      0.056300000000     0.153520000000     0.395150000000     0.186305   
H23      H      0.114490000000     0.126010000000     0.572480000000     0.129161   
H24      H      0.081920000000     0.031210000000     0.659200000000     0.19511    
H25      H      0.025200000000     0.861930000000     0.610180000000     0.12677    
H26      H      0.939880000000     0.768080000000     0.544200000000     0.189885   
H27      H      0.899700000000     0.806550000000     0.400000000000     0.135406   
H28      H      0.860450000000     0.914620000000     0.316870000000     0.200903   
H29      H      0.144880000000     0.058750000000     0.629220000000     0.195991   
H30      H      0.900420000000     0.744310000000     0.493900000000     0.195069   
H31      H      0.910960000000     0.892530000000     0.329110000000     0.19778    
H32      H      0.081630000000     0.194850000000     0.438480000000     0.201648   
H33      H      0.944180000000     0.410890000000     0.081930000000     0.197068   
H34      H      0.899560000000     0.428120000000     0.891720000000     0.198197   
H35      H      0.046410000000     0.610480000000     0.976230000000     0.199016   
H36      H      0.127860000000     0.468100000000     0.968860000000     0.19945    
H37      H      0.792800000000     0.399220000000     0.933540000000     0.128847   
H38      H      0.828080000000     0.502490000000     0.904950000000     0.196513   
H39      H      0.054250000000     0.639100000000     0.881740000000     0.126379   
H40      H      0.186570000000     0.669630000000     0.911570000000     0.191427   
H41      H      0.231780000000     0.591940000000     0.028170000000     0.140028   
H42      H      0.182670000000     0.454680000000     0.055450000000     0.205208   
H43      H      0.980620000000     0.307470000000     0.059370000000     0.140569   
H44      H      0.849790000000     0.308340000000     0.070260000000     0.193746   
H45      H      0.236120000000     0.671820000000     0.956100000000     0.192491   
H46      H      0.155650000000     0.433330000000     0.109230000000     0.204739   
H47      H      0.858570000000     0.280730000000     0.025620000000     0.197534   
H48      H      0.854170000000     0.525560000000     0.850990000000     0.203198   
H49      H      0.869830000000     0.441020000000     0.534030000000     0.199743   
H50      H      0.948970000000     0.445350000000     0.361220000000     0.191731   
H51      H      0.092480000000     0.604070000000     0.470130000000     0.192694   
H52      H      0.058770000000     0.404590000000     0.531420000000     0.201364   
H53      H      0.833820000000     0.428910000000     0.338000000000     0.132099   
H54      H      0.950030000000     0.576720000000     0.324380000000     0.206944   
H55      H      0.155590000000     0.628370000000     0.392020000000     0.125615   
H56      H      0.224940000000     0.611630000000     0.478000000000     0.191173   
H57      H      0.128660000000     0.485270000000     0.610470000000     0.144678   
H58      H      0.031940000000     0.370580000000     0.621950000000     0.194658   
H59      H      0.863540000000     0.318510000000     0.613800000000     0.143635   
H60      H      0.745170000000     0.368060000000     0.464340000000     0.199581   
H61      H      0.244900000000     0.588790000000     0.529740000000     0.195649   
H62      H      0.002540000000     0.396130000000     0.654180000000     0.199336   
H63      H      0.742040000000     0.361660000000     0.406870000000     0.194203   
H64      H      0.973910000000     0.543510000000     0.295960000000     0.198663   
H65      H      0.494420000000     0.921750000000     0.891250000000     0.191879   
H66      H      0.437340000000     0.896960000000     0.073770000000     0.204666   
H67      H      0.650590000000     0.067680000000     0.020370000000     0.199138   
H68      H      0.441580000000     0.066740000000     0.951530000000     0.185581   
H69      H      0.402820000000     0.764060000000     0.003580000000     0.14244    
H70      H      0.534020000000     0.867500000000     0.113770000000     0.195519   
H71      H      0.599920000000     0.064580000000     0.131490000000     0.138022   
H72      H      0.647540000000     0.151150000000     0.069970000000     0.192918   
H73      H      0.513400000000     0.162690000000     0.936890000000     0.127865   
H74      H      0.488480000000     0.111350000000     0.854930000000     0.195142   
H75      H      0.365090000000     0.905040000000     0.850410000000     0.138589   
H76      H      0.390360000000     0.819110000000     0.893180000000     0.188263   
H77      H      0.679310000000     0.192980000000     0.022670000000     0.203944   
H78      H      0.422360000000     0.071400000000     0.827110000000     0.199978   
H79      H      0.333270000000     0.815170000000     0.920830000000     0.193452   
H80      H      0.581170000000     0.909980000000     0.153210000000     0.201462   
H81      H      0.367260000000     0.918920000000     0.436360000000     0.197481   
H82      H      0.496480000000     0.972030000000     0.606870000000     0.205823   
H83      H      0.587310000000     0.916020000000     0.475860000000     0.19504    
H84      H      0.583670000000     0.105050000000     0.439530000000     0.199415   
H85      H      0.292270000000     0.858820000000     0.580740000000     0.141784   
H86      H      0.476380000000     0.846880000000     0.633760000000     0.199603   
H87      H      0.676740000000     0.952930000000     0.544070000000     0.130275   
H88      H      0.736190000000     0.022760000000     0.458650000000     0.200838   
H89      H      0.648100000000     0.073000000000     0.349410000000     0.142311   
H90      H      0.466450000000     0.095220000000     0.327630000000     0.200669   
H91      H      0.362500000000     0.047300000000     0.423520000000     0.14358    
H92      H      0.298940000000     0.953540000000     0.499630000000     0.207709   
H93      H      0.739740000000     0.058010000000     0.406800000000     0.195043   
H94      H      0.538590000000     0.117730000000     0.348130000000     0.196394   
H95      H      0.275600000000     0.889920000000     0.489160000000     0.193707   
H96      H      0.547500000000     0.868620000000     0.656620000000     0.201653   
H97      H      0.403680000000     0.459360000000     0.066810000000     0.196841   
H98      H      0.442590000000     0.441280000000     0.883710000000     0.188137   
H99      H      0.605100000000     0.617840000000     0.970380000000     0.200183   
H100     H      0.588290000000     0.424500000000     0.041470000000     0.200196   
H101     H      0.322960000000     0.392830000000     0.881910000000     0.127276   
H102     H      0.432590000000     0.563100000000     0.838270000000     0.203204   
H103     H      0.642380000000     0.634670000000     0.876130000000     0.129784   
H104     H      0.742100000000     0.612260000000     0.958970000000     0.194874   
H105     H      0.701020000000     0.547420000000     0.100850000000     0.142459   
H106     H      0.582740000000     0.406550000000     0.141640000000     0.19682    
H107     H      0.367520000000     0.341400000000     0.086170000000     0.140682   
H108     H      0.266910000000     0.361550000000     0.010810000000     0.200773   
H109     H      0.765980000000     0.615420000000     0.016090000000     0.197677   
H110     H      0.524760000000     0.390900000000     0.174590000000     0.199694   
H111     H      0.252450000000     0.357380000000     0.952540000000     0.196773   
H112     H      0.441440000000     0.515020000000     0.818310000000     0.196552   
H113     H      0.463320000000     0.416350000000     0.595480000000     0.197812   
H114     H      0.406210000000     0.423420000000     0.404060000000     0.197222   
H115     H      0.559020000000     0.612360000000     0.483900000000     0.193774   
H116     H      0.639560000000     0.468930000000     0.474840000000     0.206513   
H117     H      0.306050000000     0.335300000000     0.435940000000     0.134412   
H118     H      0.333580000000     0.475030000000     0.397840000000     0.200642   
H119     H      0.553060000000     0.626790000000     0.373330000000     0.13353    
H120     H      0.656230000000     0.673480000000     0.430390000000     0.186287   
H121     H      0.755080000000     0.603620000000     0.509510000000     0.141459   
H122     H      0.686040000000     0.429070000000     0.571660000000     0.200144   
H123     H      0.490630000000     0.317240000000     0.584630000000     0.138065   
H124     H      0.329870000000     0.293430000000     0.566200000000     0.191908   
H125     H      0.723980000000     0.676380000000     0.441560000000     0.198761   
H126     H      0.695240000000     0.484910000000     0.592300000000     0.205242   
H127     H      0.278570000000     0.298890000000     0.527230000000     0.197038   
H128     H      0.354800000000     0.540690000000     0.389560000000     0.203889   
H129     H      0.546310000000     0.524590000000     0.732750000000     0.0423333  
H130     H      0.631730000000     0.567440000000     0.790670000000     0.0469934  
H131     H      0.570860000000     0.402050000000     0.713910000000     0.0326954  
H132     H      0.539100000000     0.400000000000     0.785900000000     0.0425681  
H133     H      0.616790000000     0.566210000000     0.704020000000     0.0389878  
H134     H      0.673760000000     0.542090000000     0.767780000000     0.0404348  
H135     H      0.616420000000     0.417280000000     0.802380000000     0.0442541  
H136     H      0.678980000000     0.434610000000     0.685570000000     0.0375729  
H137     H      0.574250000000     0.538760000000     0.249500000000     0.0404439  
H138     H      0.509640000000     0.438070000000     0.269440000000     0.040637   
H139     H      0.519760000000     0.590420000000     0.238670000000     0.0348942  
H140     H      0.418910000000     0.532800000000     0.269240000000     0.0471492  
H141     H      0.570550000000     0.499020000000     0.205150000000     0.0413169  
H142     H      0.457740000000     0.435760000000     0.221330000000     0.0411793  
H143     H      0.397290000000     0.488260000000     0.223820000000     0.0388782  
H144     H      0.398400000000     0.561040000000     0.156840000000     0.0345936  
H145     H      0.526050000000     0.722630000000     0.461700000000     0.0342402  
H146     H      0.417040000000     0.659400000000     0.437730000000     0.0405345  
H147     H      0.545060000000     0.717510000000     0.551000000000     0.0298956  
H148     H      0.450440000000     0.646170000000     0.588130000000     0.0491421  
H149     H      0.487600000000     0.757280000000     0.434140000000     0.0467142  
H150     H      0.392580000000     0.689720000000     0.475100000000     0.0404803  
H151     H      0.410410000000     0.680590000000     0.562370000000     0.0405361  
H152     H      0.585470000000     0.784590000000     0.618180000000     0.0360539  
H153     H      0.472250000000     0.236830000000     0.428870000000     0.0453617  
H154     H      0.568170000000     0.303950000000     0.392440000000     0.0392787  
H155     H      0.495500000000     0.244530000000     0.516230000000     0.0327464  
H156     H      0.607930000000     0.298460000000     0.542600000000     0.0446767  
H157     H      0.499610000000     0.202330000000     0.399060000000     0.0368025  
H158     H      0.605930000000     0.267800000000     0.419000000000     0.0291386  
H159     H      0.622900000000     0.259720000000     0.507230000000     0.0446974  
H160     H      0.472180000000     0.188700000000     0.595370000000     0.0285769  
H161     H      0.566010000000     0.950810000000     0.754780000000     0.0346346  
H162     H      0.650160000000     0.978240000000     0.707270000000     0.0404583  
H163     H      0.530790000000     0.033130000000     0.726330000000     0.0337037  
H164     H      0.612930000000     0.110580000000     0.680700000000     0.0475039  
H165     H      0.632170000000     0.974560000000     0.794350000000     0.0429136  
H166     H      0.696390000000     0.038260000000     0.736280000000     0.0395883  
H167     H      0.668650000000     0.112560000000     0.725460000000     0.0450857  
H168     H      0.513700000000     0.106160000000     0.757650000000     0.033973   
H169     H      0.494560000000     0.944960000000     0.235820000000     0.043252   
H170     H      0.428180000000     0.866670000000     0.287220000000     0.043156   
H171     H      0.447920000000     0.019620000000     0.220420000000     0.0292229  
H172     H      0.369610000000     0.985360000000     0.275100000000     0.0453525  
H173     H      0.450210000000     0.886420000000     0.203300000000     0.0352329  
H174     H      0.362150000000     0.856060000000     0.249920000000     0.0393029  
H175     H      0.324080000000     0.924690000000     0.246960000000     0.0439277  
H176     H      0.394620000000     0.053500000000     0.150630000000     0.0400214  
H177     H      0.631510000000     0.812740000000     0.891830000000     0.0392599  
H178     H      0.556300000000     0.728530000000     0.865610000000     0.0430292  
H179     H      0.615300000000     0.784890000000     0.982530000000     0.0282873  
H180     H      0.511130000000     0.714450000000     0.009180000000     0.0552899  
H181     H      0.577270000000     0.829750000000     0.861190000000     0.0291589  
H182     H      0.494810000000     0.740450000000     0.873030000000     0.0330707  
H183     H      0.478860000000     0.744500000000     0.965720000000     0.0517702  
H184     H      0.635820000000     0.866780000000     0.037590000000     0.031027   
H185     H      0.370030000000     0.161030000000     0.047120000000     0.0358799  
H186     H      0.418810000000     0.230970000000     0.980580000000     0.0481962  
H187     H      0.438540000000     0.173610000000     0.123050000000     0.028297   
H188     H      0.514620000000     0.264390000000     0.114480000000     0.0407349  
H189     H      0.383470000000     0.134560000000     0.998780000000     0.0256333  
H190     H      0.482940000000     0.219830000000     0.986970000000     0.0475729  
H191     H      0.553520000000     0.252880000000     0.072320000000     0.042003   
H192     H      0.578110000000     0.180390000000     0.115680000000     0.0364847  
H193     H      0.747390000000     0.143760000000     0.406590000000     0.030007   
H194     H      0.850680000000     0.211140000000     0.395040000000     0.0342799  
H195     H      0.670920000000     0.206930000000     0.442950000000     0.0205092  
H196     H      0.723720000000     0.215810000000     0.373240000000     0.0383237  
H197     H      0.788000000000     0.139460000000     0.460770000000     0.0381399  
H198     H      0.859330000000     0.231860000000     0.453860000000     0.0526495  
H199     H      0.739340000000     0.279760000000     0.387200000000     0.0372951  
H200     H      0.716930000000     0.248160000000     0.529890000000     0.0409661  
H201     H      0.272260000000     0.768920000000     0.584950000000     0.0397161  
H202     H      0.224830000000     0.674450000000     0.610040000000     0.0355955  
H203     H      0.222210000000     0.786960000000     0.504690000000     0.0171098  
H204     H      0.137730000000     0.703030000000     0.484520000000     0.0422008  
H205     H      0.325420000000     0.745070000000     0.581550000000     0.0391719  
H206     H      0.248040000000     0.659640000000     0.559480000000     0.0385079  
H207     H      0.185750000000     0.676080000000     0.474140000000     0.0188213  
H208     H      0.253750000000     0.744440000000     0.407170000000     0.0409154  
H209     H      0.767720000000     0.625460000000     0.371170000000     0.0371869  
H210     H      0.806550000000     0.599920000000     0.441430000000     0.0412412  
H211     H      0.685350000000     0.459740000000     0.344110000000     0.0314442  
H212     H      0.718820000000     0.458680000000     0.424450000000     0.0385138  
H213     H      0.803360000000     0.605170000000     0.335640000000     0.0335279  
H214     H      0.864240000000     0.612170000000     0.403680000000     0.0391939  
H215     H      0.773220000000     0.455560000000     0.392410000000     0.0316775  
H216     H      0.747940000000     0.521180000000     0.264150000000     0.032481   
H217     H      0.237260000000     0.501320000000     0.544310000000     0.0379446  
H218     H      0.341190000000     0.532210000000     0.539020000000     0.0453388  
H219     H      0.168830000000     0.386330000000     0.553220000000     0.0268666  
H220     H      0.247230000000     0.364130000000     0.569590000000     0.0365854  
H221     H      0.259360000000     0.528300000000     0.484840000000     0.038836   
H222     H      0.329410000000     0.496580000000     0.487840000000     0.040863   
H223     H      0.271420000000     0.382140000000     0.510750000000     0.0350753  
H224     H      0.128740000000     0.288880000000     0.519520000000     0.0283092  
H225     H      0.009670000000     0.552690000000     0.723310000000     0.0418441  
H226     H      0.942030000000     0.566430000000     0.665000000000     0.0394482  
H227     H      0.965560000000     0.435020000000     0.725990000000     0.0288805  
H228     H      0.866460000000     0.394850000000     0.679120000000     0.041322   
H229     H      0.961420000000     0.565710000000     0.754550000000     0.0434883  
H230     H      0.877050000000     0.525360000000     0.699040000000     0.0346665  
H231     H      0.838490000000     0.426330000000     0.711520000000     0.0402558  
H232     H      0.920850000000     0.347500000000     0.784470000000     0.0387223  
H233     H      0.159210000000     0.536850000000     0.242060000000     0.0376768  
H234     H      0.082430000000     0.553570000000     0.194850000000     0.0422155  
H235     H      0.138070000000     0.446550000000     0.252010000000     0.0273869  
H236     H      0.050820000000     0.391920000000     0.203170000000     0.0470011  
H237     H      0.127050000000     0.563010000000     0.276080000000     0.0467974  
H238     H      0.024410000000     0.509140000000     0.234860000000     0.0353847  
H239     H      0.999890000000     0.398240000000     0.237580000000     0.0400009  
H240     H      0.129460000000     0.383540000000     0.334050000000     0.0388716  
H241     H      0.790640000000     0.140840000000     0.873710000000     0.0435268  
H242     H      0.844030000000     0.227200000000     0.832020000000     0.0359667  
H243     H      0.734510000000     0.205150000000     0.820050000000     0.0286535  
H244     H      0.772920000000     0.296990000000     0.839150000000     0.0383472  
H245     H      0.807930000000     0.168480000000     0.929900000000     0.0354978  
H246     H      0.889430000000     0.235870000000     0.886160000000     0.0351072  
H247     H      0.755780000000     0.274470000000     0.899990000000     0.0643636  
H248     H      0.645020000000     0.232350000000     0.809080000000     0.0279987  
H249     H      0.207790000000     0.668700000000     0.115350000000     0.031092   
H250     H      0.277170000000     0.729910000000     0.054070000000     0.0416477  
H251     H      0.180260000000     0.742560000000     0.000280000000     0.0303018  
H252     H      0.211970000000     0.831300000000     0.029220000000     0.0429026  
H253     H      0.199580000000     0.722210000000     0.133630000000     0.0401863  
H254     H      0.304650000000     0.757460000000     0.110550000000     0.0342369  
H255     H      0.194140000000     0.800890000000     0.088190000000     0.0473815  
H256     H      0.059800000000     0.704720000000     0.987340000000     0.0296174  
H257     H      0.695230000000     0.376220000000     0.103590000000     0.0273727  
H258     H      0.649150000000     0.357620000000     0.027000000000     0.04255    
H259     H      0.735240000000     0.467240000000     0.104680000000     0.0333381  
H260     H      0.749120000000     0.525260000000     0.030900000000     0.0292528  
H261     H      0.733190000000     0.347040000000     0.080420000000     0.0368883  
H262     H      0.718600000000     0.378690000000     0.000340000000     0.05791    
H263     H      0.797510000000     0.504400000000     0.009790000000     0.0456082  
H264     H      0.812850000000     0.564680000000     0.127310000000     0.0218968  
H265     H      0.252360000000     0.599640000000     0.934780000000     0.0289948  
H266     H      0.348540000000     0.615400000000     0.959800000000     0.0394956  
H267     H      0.196800000000     0.452290000000     0.882670000000     0.0359241  
H268     H      0.225370000000     0.464430000000     0.965650000000     0.034917   
H269     H      0.284830000000     0.617110000000     0.878900000000     0.0316377  
H270     H      0.361320000000     0.595050000000     0.907680000000     0.0393404  
H271     H      0.275680000000     0.450820000000     0.937960000000     0.0364168  
H272     H      0.259570000000     0.504920000000     0.803200000000     0.034325   
H273     H      0.770980000000     0.693110000000     0.561180000000     0.0418732  
H274     H      0.846600000000     0.759490000000     0.608430000000     0.0369209  
H275     H      0.631480000000     0.717450000000     0.587660000000     0.0269458  
H276     H      0.707460000000     0.793610000000     0.551490000000     0.0416025  
H277     H      0.758200000000     0.664140000000     0.621290000000     0.0323793  
H278     H      0.794580000000     0.751520000000     0.649480000000     0.0390189  
H279     H      0.726550000000     0.812670000000     0.610640000000     0.0461536  
H280     H      0.618260000000     0.669890000000     0.677760000000     0.0404505  
H281     H      0.267760000000     0.157860000000     0.372650000000     0.0370241  
H282     H      0.327730000000     0.253340000000     0.377830000000     0.0352142  
H283     H      0.273310000000     0.233020000000     0.474760000000     0.0253464  
H284     H      0.371540000000     0.241330000000     0.519600000000     0.037855   
H285     H      0.315590000000     0.142910000000     0.415790000000     0.040308   
H286     H      0.382440000000     0.230620000000     0.377420000000     0.0357469  
H287     H      0.361600000000     0.186310000000     0.490810000000     0.0403253  
H288     H      0.234480000000     0.196700000000     0.559780000000     0.0307396  
H289     H      0.641510000000     0.825410000000     0.391930000000     0.0363116  
H290     H      0.705580000000     0.866300000000     0.461130000000     0.0361544  
H291     H      0.669580000000     0.883360000000     0.319550000000     0.0249951  
H292     H      0.763150000000     0.960800000000     0.333250000000     0.0438362  
H293     H      0.596740000000     0.831630000000     0.432330000000     0.0360493  
H294     H      0.683060000000     0.917260000000     0.457190000000     0.0273778  
H295     H      0.731740000000     0.990660000000     0.364430000000     0.0466582  
H296     H      0.594020000000     0.915010000000     0.263760000000     0.0324921  
H297     H      0.308630000000     0.104380000000     0.564820000000     0.0361496  
H298     H      0.399680000000     0.116910000000     0.538430000000     0.0386815  
H299     H      0.241900000000     0.001190000000     0.635580000000     0.0310641  
H300     H      0.344050000000     0.064090000000     0.642470000000     0.034972   
H301     H      0.289870000000     0.083670000000     0.505770000000     0.046444   
H302     H      0.362430000000     0.054280000000     0.511530000000     0.0315168  
H303     H      0.346930000000     0.002890000000     0.652950000000     0.0463979  
H304     H      0.186610000000     0.897940000000     0.622300000000     0.0399685  
H305     H      0.142610000000     0.814150000000     0.389460000000     0.0389385  
H306     H      0.066740000000     0.730440000000     0.363620000000     0.0419146  
H307     H      0.138290000000     0.787490000000     0.477600000000     0.0270916  
H308     H      0.045480000000     0.713610000000     0.511380000000     0.0544506  
H309     H      0.086100000000     0.830450000000     0.362460000000     0.0314492  
H310     H      0.005570000000     0.740810000000     0.375750000000     0.0332432  
H311     H      0.000060000000     0.739740000000     0.477800000000     0.0525552  
H312     H      0.054270000000     0.803170000000     0.553610000000     0.0243558  
H313     H      0.889190000000     0.170310000000     0.454270000000     0.0311161  
H314     H      0.992800000000     0.249970000000     0.454480000000     0.045022   
H315     H      0.838230000000     0.138370000000     0.535790000000     0.0365543  
H316     H      0.894310000000     0.215910000000     0.578450000000     0.0462472  
H317     H      0.946440000000     0.155960000000     0.444850000000     0.0332398  
H318     H      0.016210000000     0.219960000000     0.505160000000     0.045342   
H319     H      0.960590000000     0.207760000000     0.588060000000     0.0381634  
H320     H      0.923610000000     0.104110000000     0.623220000000     0.0295922  
H321     H      0.969160000000     0.920220000000     0.726610000000     0.0405521  
H322     H      0.899750000000     0.855700000000     0.784310000000     0.0436322  
H323     H      0.869870000000     0.987090000000     0.670990000000     0.0296489  
H324     H      0.914460000000     0.005060000000     0.745930000000     0.0406516  
H325     H      0.912580000000     0.860630000000     0.699240000000     0.0382664  
H326     H      0.834630000000     0.850230000000     0.749650000000     0.0436756  
H327     H      0.835410000000     0.965930000000     0.757100000000     0.0442736  
H328     H      0.766290000000     0.910600000000     0.636410000000     0.0468779  
H329     H      0.139010000000     0.102270000000     0.250580000000     0.0354725  
H330     H      0.068570000000     0.087120000000     0.184290000000     0.0460249  
H331     H      0.176880000000     0.034770000000     0.258990000000     0.0329087  
H332     H      0.129540000000     0.972120000000     0.198950000000     0.0441441  
H333     H      0.067190000000     0.083900000000     0.271920000000     0.0379698  
H334     H      0.012240000000     0.023940000000     0.210820000000     0.0445483  
H335     H      0.055390000000     0.943250000000     0.221950000000     0.043376   
H336     H      0.077920000000     0.905940000000     0.308130000000     0.0321395  
H337     H      0.838300000000     0.750990000000     0.009830000000     0.0386088  
H338     H      0.792380000000     0.754480000000     0.079620000000     0.0431775  
H339     H      0.716220000000     0.814300000000     0.979620000000     0.0289453  
H340     H      0.715190000000     0.784600000000     0.061980000000     0.0360849  
H341     H      0.766110000000     0.703730000000     0.984780000000     0.0394975  
H342     H      0.772760000000     0.686830000000     0.073180000000     0.0356302  
H343     H      0.642100000000     0.740590000000     0.037780000000     0.0470488  
H344     H      0.688200000000     0.756500000000     0.899850000000     0.0376939  
H345     H      0.238820000000     0.272120000000     0.925030000000     0.0245515  
H346     H      0.310150000000     0.255100000000     0.886260000000     0.0304532  
H347     H      0.264660000000     0.276170000000     0.012130000000     0.0332898  
H348     H      0.351940000000     0.257150000000     0.035190000000     0.0440345  
H349     H      0.197910000000     0.209050000000     0.900530000000     0.0369261  
H350     H      0.286170000000     0.191770000000     0.920780000000     0.0445195  
H351     H      0.308170000000     0.193220000000     0.011010000000     0.0369223  
H352     H      0.193690000000     0.223110000000     0.085070000000     0.0384564  
H353     H      0.821940000000     0.050330000000     0.152160000000     0.0370097  
H354     H      0.731810000000     0.975410000000     0.127280000000     0.0396328  
H355     H      0.843430000000     0.115820000000     0.086390000000     0.0302824  
H356     H      0.792660000000     0.087080000000     0.008970000000     0.0375858  
H357     H      0.843050000000     0.999140000000     0.154160000000     0.0320792  
H358     H      0.768670000000     0.953310000000     0.093240000000     0.0388201  
H359     H      0.822750000000     0.041930000000     0.008170000000     0.0330437  
H360     H      0.901380000000     0.179790000000     0.005490000000     0.0237991  
H361     H      0.157630000000     0.847910000000     0.893660000000     0.0368942  
H362     H      0.213150000000     0.888020000000     0.966070000000     0.0379152  
H363     H      0.193040000000     0.910740000000     0.824650000000     0.0286144  
H364     H      0.278120000000     0.995480000000     0.843430000000     0.044547   
H365     H      0.106190000000     0.849140000000     0.930850000000     0.0428319  
H366     H      0.186240000000     0.936110000000     0.959800000000     0.0365065  
H367     H      0.234420000000     0.012350000000     0.875940000000     0.0555617  
H368     H      0.132170000000     0.938580000000     0.755060000000     0.0376276  
H369     H      0.983290000000     0.725180000000     0.947680000000     0.0419232  
H370     H      0.886790000000     0.643130000000     0.931300000000     0.0413146  
H371     H      0.996890000000     0.732040000000     0.064000000000     0.0338789  
H372     H      0.935920000000     0.640820000000     0.079510000000     0.0493739  
H373     H      0.921800000000     0.738460000000     0.928410000000     0.0482829  
H374     H      0.849800000000     0.659060000000     0.971180000000     0.0300134  
H375     H      0.867080000000     0.640790000000     0.058370000000     0.0316613  
H376     H      0.947100000000     0.743240000000     0.133830000000     0.0299193  
H377     H      0.129380000000     0.295020000000     0.899360000000     0.0302817  
H378     H      0.030140000000     0.220030000000     0.881800000000     0.0397336  
H379     H      0.152900000000     0.285050000000     0.980750000000     0.0269807  
H380     H      0.071320000000     0.219400000000     0.032090000000     0.0541659  
H381     H      0.081260000000     0.322210000000     0.876440000000     0.0426123  
H382     H      0.992310000000     0.244950000000     0.912740000000     0.0389607  
H383     H      0.025520000000     0.250030000000     0.010460000000     0.0454239  
H384     H      0.109790000000     0.313090000000     0.076690000000     0.0415413  
N1       N      0.581290000000     0.481470000000     0.703700000000    -0.172079   
N2       N      0.595760000000     0.480830000000     0.801540000000    -0.164578   
N3       N      0.514850000000     0.537890000000     0.190480000000    -0.170478   
N4       N      0.461990000000     0.483090000000     0.274450000000    -0.166518   
N5       N      0.504010000000     0.759600000000     0.510620000000    -0.171578   
N6       N      0.436040000000     0.647910000000     0.512370000000    -0.166814   
N7       N      0.510120000000     0.195830000000     0.475170000000    -0.170677   
N8       N      0.587370000000     0.307030000000     0.467860000000    -0.16793    
N9       N      0.590340000000     0.025050000000     0.781170000000    -0.166239   
N10      N      0.629110000000     0.042640000000     0.688490000000    -0.163192   
N11      N      0.424780000000     0.948300000000     0.189170000000    -0.165825   
N12      N      0.399700000000     0.926220000000     0.286600000000    -0.162474   
N13      N      0.581000000000     0.826870000000     0.936550000000    -0.172324   
N14      N      0.526630000000     0.712950000000     0.936010000000    -0.160461   
N15      N      0.443780000000     0.145870000000     0.060160000000    -0.17036    
N16      N      0.474990000000     0.256220000000     0.044140000000    -0.159484   
N17      N      0.730020000000     0.173630000000     0.463840000000    -0.17441    
N18      N      0.812720000000     0.260530000000     0.403600000000    -0.164357   
N19      N      0.289980000000     0.764560000000     0.515080000000    -0.170823   
N20      N      0.175180000000     0.677100000000     0.545830000000    -0.165221   
N21      N      0.719730000000     0.540830000000     0.360530000000    -0.171186   
N22      N      0.804760000000     0.529570000000     0.423520000000    -0.16519    
N23      N      0.201250000000     0.442850000000     0.494350000000    -0.168723   
N24      N      0.305320000000     0.447350000000     0.551710000000    -0.168152   
N25      N      0.946200000000     0.484140000000     0.763330000000    -0.169268   
N26      N      0.907850000000     0.481180000000     0.667270000000    -0.1664     
N27      N      0.096750000000     0.477510000000     0.290150000000    -0.169385   
N28      N      0.054320000000     0.469250000000     0.195450000000    -0.165637   
N29      N      0.733470000000     0.171030000000     0.889920000000    -0.164835   
N30      N      0.833550000000     0.273510000000     0.878360000000    -0.162738   
N31      N      0.156400000000     0.697060000000     0.066870000000    -0.168474   
N32      N      0.267830000000     0.798370000000     0.062250000000    -0.163358   
N33      N      0.785180000000     0.432720000000     0.084690000000    -0.17101    
N34      N      0.704940000000     0.443060000000     0.013010000000    -0.170202   
N35      N      0.221890000000     0.534100000000     0.892390000000    -0.174644   
N36      N      0.313820000000     0.530970000000     0.958520000000    -0.164008   
N37      N      0.691920000000     0.685220000000     0.589390000000    -0.17027    
N38      N      0.784980000000     0.790120000000     0.583660000000    -0.1602     
N39      N      0.255880000000     0.162670000000     0.444460000000    -0.170469   
N40      N      0.375980000000     0.253960000000     0.443280000000    -0.164267   
N41      N      0.619390000000     0.887880000000     0.371280000000    -0.169667   
N42      N      0.742090000000     0.928150000000     0.404690000000    -0.163229   
N43      N      0.255080000000     0.020630000000     0.562020000000    -0.169088   
N44      N      0.376010000000     0.047020000000     0.585870000000    -0.166206   
N45      N      0.094130000000     0.825870000000     0.437880000000    -0.171842   
N46      N      0.042160000000     0.712840000000     0.435520000000    -0.160581   
N47      N      0.909820000000     0.130370000000     0.513770000000    -0.172239   
N48      N      0.950860000000     0.241310000000     0.519830000000    -0.161882   
N49      N      0.903400000000     0.930800000000     0.680800000000    -0.171831   
N50      N      0.887770000000     0.926270000000     0.777560000000    -0.162872   
N51      N      0.095830000000     0.023730000000     0.284370000000    -0.169974   
N52      N      0.085930000000     0.020550000000     0.186060000000    -0.163893   
N53      N      0.777380000000     0.781970000000     0.985450000000    -0.175011   
N54      N      0.701050000000     0.706950000000     0.054500000000    -0.162948   
N55      N      0.212490000000     0.205550000000     0.976660000000    -0.17214    
N56      N      0.336740000000     0.259870000000     0.959830000000    -0.165288   
N57      N      0.877000000000     0.060200000000     0.097310000000    -0.16879    
N58      N      0.756820000000     0.017830000000     0.058730000000    -0.164555   
N59      N      0.132040000000     0.907920000000     0.871130000000    -0.170319   
N60      N      0.251570000000     0.951290000000     0.911220000000    -0.163918   
N61      N      0.952030000000     0.748110000000     0.002250000000    -0.16867    
N62      N      0.914850000000     0.638420000000     0.004700000000    -0.165805   
N63      N      0.102670000000     0.324390000000     0.951750000000    -0.172446   
N64      N      0.040400000000     0.212230000000     0.957640000000    -0.163764   
O1       O      0.157360000000     0.124040000000     0.947610000000    -0.370985   
O2       O      0.137900000000     0.134390000000     0.019400000000    -0.365724   
O3       O      0.919850000000     0.983790000000     0.835880000000    -0.372254   
O4       O      0.921660000000     0.904540000000     0.849520000000    -0.386502   
O5       O      0.003060000000     0.131840000000     0.923690000000    -0.360379   
O6       O      0.036180000000     0.139300000000     0.000720000000    -0.37258    
O7       O      0.118850000000     0.978080000000     0.883010000000    -0.38101    
O8       O      0.043380000000     0.893340000000     0.898090000000    -0.359127   
O9       O      0.185820000000     0.081060000000     0.881850000000    -0.337651   
O10      O      0.206970000000     0.034410000000     0.981950000000    -0.537674   
O11      O      0.005630000000     0.096280000000     0.834530000000    -0.51996    
O12      O      0.870960000000     0.043320000000     0.890350000000    -0.352027   
O13      O      0.057040000000     0.071110000000     0.949210000000    -0.488309   
O14      O      0.021860000000     0.993860000000     0.896680000000    -0.62865    
O15      O      0.996250000000     0.830710000000     0.033210000000    -0.37281    
O16      O      0.964710000000     0.822290000000     0.956000000000    -0.368188   
O17      O      0.876220000000     0.991340000000     0.066470000000    -0.389791   
O18      O      0.963970000000     0.070460000000     0.070250000000    -0.36376    
O19      O      0.820560000000     0.870490000000     0.959040000000    -0.365645   
O20      O      0.866100000000     0.824470000000     0.946730000000    -0.360628   
O21      O      0.068800000000     0.971830000000     0.123720000000    -0.373135   
O22      O      0.066540000000     0.050800000000     0.112100000000    -0.37823    
O23      O      0.006470000000     0.864950000000     0.122580000000    -0.514916   
O24      O      0.132640000000     0.924430000000     0.062870000000    -0.364837   
O25      O      0.845250000000     0.864000000000     0.078080000000    -0.369776   
O26      O      0.783400000000     0.924150000000     0.009210000000    -0.519899   
O27      O      0.941170000000     0.891180000000     0.009970000000    -0.631319   
O28      O      0.977650000000     0.967650000000     0.060410000000    -0.49475    
O29      O      0.058950000000     0.937390000000     0.972030000000    -0.500024   
O30      O      0.941580000000     0.026020000000     0.984460000000    -0.633421   
O31      O      0.096980000000     0.017080000000     0.024600000000    -0.628121   
O32      O      0.904670000000     0.946560000000     0.933660000000    -0.481467   
O33      O      0.019270000000     0.838210000000     0.460240000000    -0.383166   
O34      O      0.103800000000     0.909670000000     0.430040000000    -0.370014   
O35      O      0.842470000000     0.962730000000     0.391460000000    -0.373411   
O36      O      0.812280000000     0.943580000000     0.466690000000    -0.371859   
O37      O      0.021140000000     0.006910000000     0.331770000000    -0.372747   
O38      O      0.103610000000     0.999370000000     0.362490000000    -0.368539   
O39      O      0.868700000000     0.823440000000     0.540560000000    -0.358385   
O40      O      0.824000000000     0.874560000000     0.545430000000    -0.360691   
O41      O      0.875670000000     0.814660000000     0.419410000000    -0.368297   
O42      O      0.925060000000     0.774270000000     0.512760000000    -0.516198   
O43      O      0.896030000000     0.916470000000     0.334660000000    -0.523359   
O44      O      0.941120000000     0.053310000000     0.341610000000    -0.347827   
O45      O      0.995660000000     0.927880000000     0.418180000000    -0.496786   
O46      O      0.898640000000     0.915190000000     0.454520000000    -0.626314   
O47      O      0.973820000000     0.939860000000     0.632420000000    -0.374991   
O48      O      0.898100000000     0.958070000000     0.602990000000    -0.373236   
O49      O      0.159720000000     0.130330000000     0.466170000000    -0.372511   
O50      O      0.182370000000     0.077060000000     0.429530000000    -0.360242   
O51      O      0.983950000000     0.111990000000     0.505360000000    -0.388422   
O52      O      0.893070000000     0.043380000000     0.528000000000    -0.367192   
O53      O      0.154980000000     0.985740000000     0.574960000000    -0.37327    
O54      O      0.185890000000     0.007260000000     0.499830000000    -0.362081   
O55      O      0.102830000000     0.031970000000     0.632630000000    -0.534413   
O56      O      0.055710000000     0.895050000000     0.624810000000    -0.343277   
O57      O      0.105590000000     0.147470000000     0.546140000000    -0.35017    
O58      O      0.066730000000     0.159410000000     0.428160000000    -0.526217   
O59      O      0.003830000000     0.022060000000     0.548460000000    -0.628186   
O60      O      0.100220000000     0.032990000000     0.512430000000    -0.500264   
O61      O      0.950540000000     0.910300000000     0.545870000000    -0.489329   
O62      O      0.049000000000     0.041110000000     0.419800000000    -0.634044   
O63      O      0.048300000000     0.921530000000     0.510790000000    -0.630059   
O64      O      0.952740000000     0.029410000000     0.455570000000    -0.500498   
O65      O      0.077790000000     0.368900000000     0.999290000000    -0.375473   
O66      O      0.058790000000     0.374910000000     0.920170000000    -0.372721   
O67      O      0.831400000000     0.401310000000     0.044800000000    -0.392707   
O68      O      0.888660000000     0.482120000000     0.074900000000    -0.359085   
O69      O      0.854610000000     0.332440000000     0.930880000000    -0.3892     
O70      O      0.932030000000     0.343550000000     0.889800000000    -0.358228   
O71      O      0.049710000000     0.437180000000     0.125240000000    -0.373693   
O72      O      0.023830000000     0.502530000000     0.127950000000    -0.378887   
O73      O      0.002000000000     0.332290000000     0.084480000000    -0.351035   
O74      O      0.149320000000     0.440790000000     0.075850000000    -0.525876   
O75      O      0.860010000000     0.311170000000     0.038130000000    -0.529484   
O76      O      0.788440000000     0.367760000000     0.955060000000    -0.33336    
O77      O      0.975000000000     0.383870000000     0.981080000000    -0.503465   
O78      O      0.962410000000     0.429250000000     0.052550000000    -0.636853   
O79      O      0.146150000000     0.638840000000     0.016010000000    -0.388004   
O80      O      0.074750000000     0.612020000000     0.069800000000    -0.358455   
O81      O      0.957300000000     0.518810000000     0.833280000000    -0.376586   
O82      O      0.984870000000     0.454820000000     0.829320000000    -0.377502   
O83      O      0.934160000000     0.590420000000     0.957640000000    -0.37344    
O84      O      0.954960000000     0.585300000000     0.036780000000    -0.370608   
O85      O      0.149890000000     0.559780000000     0.893990000000    -0.368054   
O86      O      0.119470000000     0.475270000000     0.880910000000    -0.35867    
O87      O      0.196840000000     0.652730000000     0.939790000000    -0.51801    
O88      O      0.208590000000     0.558050000000     0.012470000000    -0.365454   
O89      O      0.010470000000     0.625010000000     0.873030000000    -0.34406    
O90      O      0.861150000000     0.517480000000     0.884140000000    -0.530731   
O91      O      0.036080000000     0.573200000000     0.976680000000    -0.636022   
O92      O      0.048920000000     0.528840000000     0.907090000000    -0.477235   
O93      O      0.081500000000     0.515200000000     0.042380000000    -0.4908     
O94      O      0.929600000000     0.443230000000     0.917200000000    -0.637029   
O95      O      0.092520000000     0.471620000000     0.972160000000    -0.621507   
O96      O      0.917940000000     0.486420000000     0.986360000000    -0.500599   
O97      O      0.943880000000     0.312580000000     0.544030000000    -0.363406   
O98      O      0.985490000000     0.320790000000     0.475150000000    -0.366411   
O99      O      0.825530000000     0.470750000000     0.471640000000    -0.397823   
O100     O      0.888890000000     0.557030000000     0.476730000000    -0.346159   
O101     O      0.837080000000     0.345810000000     0.410430000000    -0.393928   
O102     O      0.913480000000     0.326380000000     0.409700000000    -0.35753    
O103     O      0.927220000000     0.439840000000     0.614330000000    -0.385463   
O104     O      0.941850000000     0.524920000000     0.594860000000    -0.383088   
O105     O      0.853910000000     0.331910000000     0.582220000000    -0.351711   
O106     O      0.006310000000     0.386360000000     0.624130000000    -0.535522   
O107     O      0.765730000000     0.375220000000     0.435670000000    -0.514604   
O108     O      0.857850000000     0.462620000000     0.353860000000    -0.360816   
O109     O      0.920080000000     0.383630000000     0.475370000000    -0.491487   
O110     O      0.903940000000     0.450340000000     0.515680000000    -0.613493   
O111     O      0.129820000000     0.587370000000     0.566980000000    -0.377054   
O112     O      0.071330000000     0.624170000000     0.539260000000    -0.352315   
O113     O      0.068610000000     0.515760000000     0.340400000000    -0.376035   
O114     O      0.047300000000     0.428910000000     0.357290000000    -0.378573   
O115     O      0.036370000000     0.637980000000     0.406340000000    -0.360101   
O116     O      0.002840000000     0.632590000000     0.478400000000    -0.361134   
O117     O      0.154790000000     0.491510000000     0.461760000000    -0.36296    
O118     O      0.102740000000     0.403840000000     0.459330000000    -0.355546   
O119     O      0.213790000000     0.587440000000     0.506310000000    -0.529111   
O120     O      0.144270000000     0.478730000000     0.583200000000    -0.371215   
O121     O      0.125070000000     0.623790000000     0.365690000000    -0.339545   
O122     O      0.973600000000     0.558550000000     0.324230000000    -0.526366   
O123     O      0.062950000000     0.566670000000     0.473570000000    -0.631752   
O124     O      0.077860000000     0.500840000000     0.435180000000    -0.466673   
O125     O      0.022310000000     0.495160000000     0.555300000000    -0.485578   
O126     O      0.960640000000     0.455610000000     0.393160000000    -0.621681   
O127     O      0.040390000000     0.425530000000     0.516050000000    -0.625025   
O128     O      0.943280000000     0.525830000000     0.434410000000    -0.490456   
O129     O      0.350040000000     0.981040000000     0.896990000000    -0.378608   
O130     O      0.321660000000     0.962380000000     0.972740000000    -0.36444    
O131     O      0.509750000000     0.845790000000     0.953500000000    -0.385496   
O132     O      0.600310000000     0.913970000000     0.929280000000    -0.370132   
O133     O      0.356660000000     0.829650000000     0.027430000000    -0.380767   
O134     O      0.326520000000     0.888890000000     0.042640000000    -0.357347   
O135     O      0.522190000000     0.017240000000     0.831980000000    -0.361923   
O136     O      0.601340000000     0.003240000000     0.859830000000    -0.366495   
O137     O      0.394810000000     0.938530000000     0.833280000000    -0.34713    
O138     O      0.455020000000     0.075840000000     0.850150000000    -0.530239   
O139     O      0.376010000000     0.827120000000     0.919380000000    -0.539289   
O140     O      0.433350000000     0.792380000000     0.023390000000    -0.342711   
O141     O      0.403210000000     0.932430000000     0.956790000000    -0.496993   
O142     O      0.496170000000     0.940260000000     0.917820000000    -0.626945   
O143     O      0.650780000000     0.141850000000     0.934130000000    -0.355276   
O144     O      0.682770000000     0.083420000000     0.920590000000    -0.359309   
O145     O      0.493120000000     0.960050000000     0.137090000000    -0.378944   
O146     O      0.410350000000     0.968570000000     0.109760000000    -0.360924   
O147     O      0.657950000000     0.985430000000     0.071990000000    -0.375262   
O148     O      0.688300000000     0.009180000000     0.996780000000    -0.373778   
O149     O      0.513560000000     0.128600000000     0.034430000000    -0.37062    
O150     O      0.415200000000     0.061990000000     0.039530000000    -0.374432   
O151     O      0.647000000000     0.159910000000     0.036280000000    -0.531802   
O152     O      0.557380000000     0.174680000000     0.941370000000    -0.342369   
O153     O      0.622080000000     0.044760000000     0.128490000000    -0.353375   
O154     O      0.557940000000     0.903680000000     0.123350000000    -0.52342    
O155     O      0.608740000000     0.044130000000     0.010960000000    -0.628008   
O156     O      0.515330000000     0.034820000000     0.049610000000    -0.49647    
O157     O      0.555650000000     0.052880000000     0.921000000000    -0.491154   
O158     O      0.457120000000     0.922410000000     0.047590000000    -0.635675   
O159     O      0.461440000000     0.045190000000     0.959980000000    -0.62329    
O160     O      0.549580000000     0.929760000000     0.008490000000    -0.490739   
O161     O      0.484200000000     0.117240000000     0.442500000000    -0.372011   
O162     O      0.542450000000     0.138650000000     0.510920000000    -0.366467   
O163     O      0.376100000000     0.838300000000     0.537850000000    -0.354289   
O164     O      0.363630000000     0.822150000000     0.462340000000    -0.3625     
O165     O      0.409150000000     0.986180000000     0.596470000000    -0.375538   
O166     O      0.468890000000     0.068130000000     0.563240000000    -0.346519   
O167     O      0.424430000000     0.978930000000     0.347630000000    -0.367349   
O168     O      0.428450000000     0.900600000000     0.359890000000    -0.371509   
O169     O      0.360590000000     0.018240000000     0.406780000000    -0.355336   
O170     O      0.495790000000     0.093260000000     0.351250000000    -0.523521   
O171     O      0.306490000000     0.923430000000     0.501000000000    -0.540427   
O172     O      0.331930000000     0.879990000000     0.597620000000    -0.337951   
O173     O      0.453070000000     0.020490000000     0.500400000000    -0.491655   
O174     O      0.406940000000     0.937430000000     0.452160000000    -0.619826   
O175     O      0.621660000000     0.961590000000     0.393520000000    -0.382707   
O176     O      0.535140000000     0.881070000000     0.399600000000    -0.363873   
O177     O      0.602130000000     0.985210000000     0.630210000000    -0.369487   
O178     O      0.595690000000     0.062310000000     0.615530000000    -0.386815   
O179     O      0.532210000000     0.839630000000     0.541960000000    -0.36321    
O180     O      0.477900000000     0.819540000000     0.471870000000    -0.371175   
O181     O      0.686960000000     0.086840000000     0.495710000000    -0.362436   
O182     O      0.650060000000     0.137930000000     0.512470000000    -0.36327    
O183     O      0.717570000000     0.037240000000     0.434120000000    -0.521335   
O184     O      0.638920000000     0.088760000000     0.374140000000    -0.374113   
O185     O      0.656490000000     0.934710000000     0.573780000000    -0.346659   
O186     O      0.519580000000     0.869900000000     0.631280000000    -0.524023   
O187     O      0.565670000000     0.935080000000     0.479360000000    -0.627787   
O188     O      0.610890000000     0.018800000000     0.525170000000    -0.475922   
O189     O      0.517980000000     0.984380000000     0.405570000000    -0.491856   
O190     O      0.500100000000     0.972620000000     0.573600000000    -0.62615    
O191     O      0.562470000000     0.068110000000     0.452560000000    -0.624541   
O192     O      0.459170000000     0.889910000000     0.524800000000    -0.46687    
O193     O      0.488040000000     0.335810000000     0.067810000000    -0.359109   
O194     O      0.495810000000     0.327750000000     0.990900000000    -0.357873   
O195     O      0.344150000000     0.478000000000     0.006770000000    -0.387818   
O196     O      0.407270000000     0.565450000000     0.000680000000    -0.340325   
O197     O      0.365710000000     0.342430000000     0.980840000000    -0.359062   
O198     O      0.420940000000     0.333970000000     0.929630000000    -0.359654   
O199     O      0.505890000000     0.482970000000     0.136150000000    -0.372845   
O200     O      0.490220000000     0.554010000000     0.112600000000    -0.384068   
O201     O      0.394170000000     0.362850000000     0.112080000000    -0.362662   
O202     O      0.543140000000     0.402740000000     0.144510000000    -0.522413   
O203     O      0.280320000000     0.372860000000     0.979120000000    -0.527471   
O204     O      0.338730000000     0.430430000000     0.889370000000    -0.364475   
O205     O      0.445100000000     0.395670000000     0.002910000000    -0.487463   
O206     O      0.432350000000     0.465830000000     0.043930000000    -0.60986    
O207     O      0.674290000000     0.621630000000     0.044030000000    -0.39574    
O208     O      0.599380000000     0.642580000000     0.047260000000    -0.355291   
O209     O      0.567310000000     0.518800000000     0.851090000000    -0.378574   
O210     O      0.550250000000     0.432990000000     0.869340000000    -0.381559   
O211     O      0.527230000000     0.638210000000     0.911560000000    -0.358054   
O212     O      0.512370000000     0.641700000000     0.987450000000    -0.367369   
O213     O      0.672220000000     0.496490000000     0.967640000000    -0.374791   
O214     O      0.613810000000     0.408630000000     0.968670000000    -0.357486   
O215     O      0.734020000000     0.600510000000     0.991790000000    -0.525207   
O216     O      0.671220000000     0.512490000000     0.088660000000    -0.372157   
O217     O      0.603630000000     0.626230000000     0.857900000000    -0.338068   
O218     O      0.451790000000     0.540820000000     0.841100000000    -0.52868    
O219     O      0.577990000000     0.580040000000     0.977060000000    -0.636383   
O220     O      0.584940000000     0.508760000000     0.938350000000    -0.477208   
O221     O      0.557600000000     0.517370000000     0.064680000000    -0.486097   
O222     O      0.460520000000     0.455470000000     0.913750000000    -0.613599   
O223     O      0.566950000000     0.442870000000     0.026110000000    -0.62595    
O224     O      0.450560000000     0.528140000000     0.955620000000    -0.494922   
O225     O      0.579310000000     0.363970000000     0.512240000000    -0.375566   
O226     O      0.562550000000     0.370190000000     0.432680000000    -0.375193   
O227     O      0.367220000000     0.410550000000     0.573450000000    -0.382954   
O228     O      0.404020000000     0.497090000000     0.580320000000    -0.35112    
O229     O      0.424540000000     0.326900000000     0.485990000000    -0.340019   
O230     O      0.442120000000     0.340010000000     0.410080000000    -0.354394   
O231     O      0.573510000000     0.448620000000     0.633900000000    -0.380564   
O232     O      0.539940000000     0.508540000000     0.638310000000    -0.381755   
O233     O      0.526980000000     0.342750000000     0.602770000000    -0.347934   
O234     O      0.669750000000     0.451970000000     0.577280000000    -0.529261   
O235     O      0.320180000000     0.312440000000     0.539300000000    -0.528152   
O236     O      0.313570000000     0.369650000000     0.446810000000    -0.373909   
O237     O      0.488200000000     0.388780000000     0.495660000000    -0.468802   
O238     O      0.477460000000     0.433570000000     0.564740000000    -0.614245   
O239     O      0.670310000000     0.623770000000     0.538400000000    -0.387698   
O240     O      0.593390000000     0.616840000000     0.577490000000    -0.364505   
O241     O      0.458890000000     0.512040000000     0.344490000000    -0.375494   
O242     O      0.492840000000     0.452140000000     0.342660000000    -0.388782   
O243     O      0.446450000000     0.593300000000     0.466560000000    -0.375042   
O244     O      0.472890000000     0.592540000000     0.545060000000    -0.370399   
O245     O      0.671530000000     0.567320000000     0.403810000000    -0.383623   
O246     O      0.623390000000     0.481080000000     0.384230000000    -0.370258   
O247     O      0.680290000000     0.656420000000     0.442480000000    -0.524926   
O248     O      0.726960000000     0.565990000000     0.502290000000    -0.357945   
O249     O      0.511470000000     0.619390000000     0.378180000000    -0.349667   
O250     O      0.364780000000     0.512190000000     0.398850000000    -0.52873    
O251     O      0.546290000000     0.574480000000     0.484440000000    -0.633822   
O252     O      0.554380000000     0.526670000000     0.416040000000    -0.497237   
O253     O      0.595240000000     0.519960000000     0.549930000000    -0.498032   
O254     O      0.435870000000     0.440170000000     0.429320000000    -0.622872   
O255     O      0.604900000000     0.472680000000     0.480180000000    -0.630933   
O256     O      0.429680000000     0.486940000000     0.498680000000    -0.495014   
S1       S      0.676290000000     0.462820000000     0.719650000000    -0.0478113  
S2       S      0.452920000000     0.596530000000     0.177400000000    -0.0342227  
S3       S      0.523940000000     0.757340000000     0.608590000000    -0.0375167  
S4       S      0.519730000000     0.191880000000     0.573950000000    -0.0192272  
S5       S      0.570780000000     0.112200000000     0.767440000000    -0.0378351  
S6       S      0.359430000000     0.002990000000     0.171550000000    -0.0299359  
S7       S      0.581010000000     0.820930000000     0.033290000000    -0.0358293  
S8       S      0.524310000000     0.161200000000     0.136550000000    -0.0575494  
S9       S      0.752430000000     0.267160000000     0.491880000000    -0.0147761  
S10      S      0.239970000000     0.777670000000     0.427520000000    -0.0521489  
S11      S      0.775450000000     0.510560000000     0.304860000000    -0.0432245  
S12      S      0.151440000000     0.334290000000     0.488930000000    -0.0319693  
S13      S      0.887190000000     0.373600000000     0.777240000000    -0.0473442  
S14      S      0.079580000000     0.373140000000     0.304080000000    -0.0381498  
S15      S      0.650800000000     0.203920000000     0.849690000000    -0.0212532  
S16      S      0.091670000000     0.741410000000     0.019920000000    -0.0474542  
S17      S      0.835200000000     0.535530000000     0.110460000000    -0.0266143  
S18      S      0.289070000000     0.508090000000     0.846720000000    -0.0373814  
S19      S      0.670320000000     0.716310000000     0.666210000000    -0.0466139  
S20      S      0.253410000000     0.166860000000     0.539790000000    -0.0513896  
S21      S      0.644340000000     0.950650000000     0.288620000000    -0.0535421  
S22      S      0.243680000000     0.928320000000     0.605940000000    -0.0287186  
S23      S      0.108810000000     0.821260000000     0.534300000000    -0.060213   
S24      S      0.869850000000     0.099740000000     0.603170000000    -0.0388117  
S25      S      0.784840000000     0.900450000000     0.681490000000    -0.0383674  
S26      S      0.134960000000     0.948050000000     0.300640000000    -0.0293963  
S27      S      0.668280000000     0.732320000000     0.943540000000    -0.0457551  
S28      S      0.234040000000     0.207930000000     0.073980000000    -0.0398002  
S29      S      0.920960000000     0.148390000000     0.033840000000    -0.0343907  
S30      S      0.162290000000     0.973190000000     0.789540000000    -0.0467437  
S31      S      0.915530000000     0.737310000000     0.090990000000    -0.0537889  
S32      S      0.152180000000     0.329650000000     0.043740000000    -0.0534017  
Zr1      Zr     0.114810000000     0.028630000000     0.942900000000     1.37479    
Zr2      Zr     0.964250000000     0.037620000000     0.904350000000     1.36674    
Zr3      Zr     0.036340000000     0.925020000000     0.051970000000     1.37431    
Zr4      Zr     0.884520000000     0.935320000000     0.014640000000     1.37382    
Zr5      Zr     0.035810000000     0.058250000000     0.029820000000     1.37433    
Zr6      Zr     0.963660000000     0.903250000000     0.928900000000     1.37156    
Zr7      Zr     0.947370000000     0.864090000000     0.482210000000     1.36091    
Zr8      Zr     0.948350000000     0.981460000000     0.392240000000     1.37285    
Zr9      Zr     0.050030000000     0.967760000000     0.574440000000     1.38014    
Zr10     Zr     0.053630000000     0.085450000000     0.485090000000     1.39096    
Zr11     Zr     0.096240000000     0.987660000000     0.447070000000     1.36765    
Zr12     Zr     0.902980000000     0.963700000000     0.518400000000     1.36144    
Zr13     Zr     0.049650000000     0.421650000000     0.042970000000     1.38231    
Zr14     Zr     0.890220000000     0.394380000000     0.989440000000     1.40422    
Zr15     Zr     0.122950000000     0.564420000000     0.970660000000     1.36943    
Zr16     Zr     0.961310000000     0.536270000000     0.915410000000     1.37735    
Zr17     Zr     0.016550000000     0.434390000000     0.909000000000     1.36399    
Zr18     Zr     0.993120000000     0.522840000000     0.048380000000     1.36543    
Zr19     Zr     0.951860000000     0.401280000000     0.554590000000     1.37287    
Zr20     Zr     0.874480000000     0.432980000000     0.434880000000     1.39291    
Zr21     Zr     0.109920000000     0.518880000000     0.515060000000     1.37492    
Zr22     Zr     0.030550000000     0.549740000000     0.394700000000     1.38131    
Zr23     Zr     0.007670000000     0.406530000000     0.435450000000     1.36393    
Zr24     Zr     0.975560000000     0.545090000000     0.514520000000     1.35719    
Zr25     Zr     0.454030000000     0.998210000000     0.894730000000     1.37894    
Zr26     Zr     0.446750000000     0.876560000000     0.981330000000     1.38007    
Zr27     Zr     0.564570000000     0.099670000000     0.986290000000     1.3697     
Zr28     Zr     0.558600000000     0.978100000000     0.073130000000     1.38534    
Zr29     Zr     0.412500000000     0.978580000000     0.023350000000     1.35408    
Zr30     Zr     0.598970000000     0.995670000000     0.945350000000     1.36083    
Zr31     Zr     0.462170000000     0.028200000000     0.418550000000     1.37292    
Zr32     Zr     0.401560000000     0.931390000000     0.535610000000     1.36773    
Zr33     Zr     0.616890000000     0.022890000000     0.442050000000     1.37046    
Zr34     Zr     0.557570000000     0.930330000000     0.561750000000     1.37371    
Zr35     Zr     0.552930000000     0.061390000000     0.535870000000     1.37271    
Zr36     Zr     0.465940000000     0.895330000000     0.441830000000     1.35887    
Zr37     Zr     0.490480000000     0.423220000000     0.076690000000     1.38522    
Zr38     Zr     0.386030000000     0.434240000000     0.968570000000     1.36822    
Zr39     Zr     0.632750000000     0.536300000000     0.013160000000     1.39355    
Zr40     Zr     0.526820000000     0.550930000000     0.904270000000     1.37382    
Zr41     Zr     0.519080000000     0.413570000000     0.950000000000     1.35919    
Zr42     Zr     0.501450000000     0.560780000000     0.028910000000     1.36393    
Zr43     Zr     0.565720000000     0.427320000000     0.553470000000     1.39072    
Zr44     Zr     0.400200000000     0.394170000000     0.503840000000     1.34949    
Zr45     Zr     0.631510000000     0.564530000000     0.476230000000     1.3973     
Zr46     Zr     0.467110000000     0.533740000000     0.425840000000     1.38287    
Zr47     Zr     0.525000000000     0.433450000000     0.421250000000     1.36339    
Zr48     Zr     0.507950000000     0.527940000000     0.558540000000     1.36825    


