data_structure

_audit_creation_method RASPA-1.0
_audit_creation_date 2023-6-4
_audit_author_name 'Poobodin Mano'

_cell_length_a    26.4901
_cell_length_b    29.0232
_cell_length_c    29.9394
_cell_angle_alpha 82.7242
_cell_angle_beta  96.3565
_cell_angle_gamma 119.447
_cell_volume      19851.8

_symmetry_cell_setting          triclinic
_symmetry_space_group_name_Hall 'P 1'
_symmetry_space_group_name_H-M  'P 1'
_symmetry_Int_Tables_number     1

_symmetry_equiv_pos_as_xyz 'x,y,z'

loop_
_atom_site_label
_atom_site_type_symbol
_atom_site_fract_x
_atom_site_fract_y
_atom_site_fract_z
_atom_site_charge
Br1      Br     0.515220000000     0.369050000000     0.672640000000    -0.220807   
Br2      Br     0.457160000000     0.596030000000     0.142720000000    -0.20914    
Br3      Br     0.389950000000     0.656580000000     0.371070000000    -0.206405   
Br4      Br     0.542410000000     0.219380000000     0.346560000000    -0.214872   
Br5      Br     0.491320000000     0.078570000000     0.648670000000    -0.215299   
Br6      Br     0.361950000000     0.008980000000     0.244220000000    -0.206219   
Br7      Br     0.400830000000     0.654540000000     0.850410000000    -0.242809   
Br8      Br     0.342490000000     0.100540000000     0.068380000000    -0.228882   
Br9      Br     0.654010000000     0.226940000000     0.513690000000    -0.225954   
Br10     Br     0.171320000000     0.825680000000     0.420540000000    -0.231246   
Br11     Br     0.749740000000     0.607130000000     0.367540000000    -0.21063    
Br12     Br     0.243760000000     0.560190000000     0.388300000000    -0.230244   
Br13     Br     0.941700000000     0.589240000000     0.649720000000    -0.220591   
Br14     Br     0.877860000000     0.482400000000     0.252700000000    -0.239781   
Br15     Br     0.727270000000     0.142090000000     0.014610000000    -0.261155   
Br16     Br     0.320880000000     0.747540000000     0.071390000000    -0.231348   
Br17     Br     0.696150000000     0.345340000000     0.043430000000    -0.246248   
Br18     Br     0.149230000000     0.398290000000     0.891270000000    -0.195919   
Br19     Br     0.721100000000     0.634350000000     0.585150000000    -0.227917   
Br20     Br     0.321840000000     0.255690000000     0.315200000000    -0.221639   
Br21     Br     0.651900000000     0.980640000000     0.298220000000    -0.227713   
Br22     Br     0.219700000000     0.973320000000     0.610420000000    -0.225687   
Br23     Br     0.965090000000     0.798360000000     0.314810000000    -0.226759   
Br24     Br     0.859400000000     0.223930000000     0.564350000000    -0.223755   
Br25     Br     0.898740000000     0.039030000000     0.654610000000    -0.23183    
Br26     Br     0.027380000000     0.104830000000     0.264080000000    -0.244725   
Br27     Br     0.623980000000     0.737870000000     0.034370000000    -0.219933   
Br28     Br     0.198220000000     0.291570000000     0.892900000000    -0.226518   
Br29     Br     0.880010000000     0.123600000000     0.995670000000    -0.229981   
Br30     Br     0.079200000000     0.836830000000     0.843130000000    -0.20989    
Br31     Br     0.027840000000     0.705460000000     0.905240000000    -0.241881   
Br32     Br     0.997700000000     0.298390000000     0.855010000000    -0.199337   
C1       C      0.155250000000     0.130500000000     0.007910000000     0.382155   
C2       C      0.933030000000     0.956210000000     0.812890000000     0.386613   
C3       C      0.023290000000     0.157430000000     0.958550000000     0.428522   
C4       C      0.076500000000     0.920510000000     0.903780000000     0.377189   
C5       C      0.969310000000     0.811780000000     0.990070000000     0.424096   
C6       C      0.882110000000     0.022360000000     0.057780000000     0.38495    
C7       C      0.807440000000     0.824420000000     0.939580000000     0.377311   
C8       C      0.028160000000     0.002660000000     0.133300000000     0.402593   
C9       C      0.010870000000     0.854650000000     0.405570000000     0.410169   
C10      C      0.788920000000     0.957260000000     0.427570000000     0.384889   
C11      C      0.025730000000     0.001540000000     0.316170000000     0.416808   
C12      C      0.801150000000     0.833310000000     0.530700000000     0.382221   
C13      C      0.935900000000     0.956450000000     0.627850000000     0.398476   
C14      C      0.169630000000     0.113490000000     0.427660000000     0.379023   
C15      C      0.945900000000     0.105220000000     0.523250000000     0.389323   
C16      C      0.172970000000     0.004040000000     0.511930000000     0.405935   
C17      C      0.025960000000     0.343750000000     0.955870000000     0.436202   
C18      C      0.812840000000     0.455500000000     0.022150000000     0.399986   
C19      C      0.871760000000     0.307230000000     0.919430000000     0.354446   
C20      C      0.981920000000     0.465050000000     0.125240000000     0.398579   
C21      C      0.099580000000     0.632180000000     0.036140000000     0.371232   
C22      C      0.976000000000     0.495800000000     0.801550000000     0.405041   
C23      C      0.932330000000     0.615360000000     0.970340000000     0.416416   
C24      C      0.138840000000     0.506320000000     0.892810000000     0.384867   
C25      C      0.963360000000     0.305930000000     0.499980000000     0.395097   
C26      C      0.826980000000     0.507410000000     0.490550000000     0.390351   
C27      C      0.838170000000     0.313470000000     0.422410000000     0.396988   
C28      C      0.983880000000     0.510330000000     0.616740000000     0.411593   
C29      C      0.119720000000     0.643810000000     0.511230000000     0.375265   
C30      C      0.969040000000     0.451320000000     0.308630000000     0.411557   
C31      C      0.984260000000     0.652530000000     0.428610000000     0.386504   
C32      C      0.125720000000     0.456950000000     0.418510000000     0.388043   
C33      C      0.291560000000     0.955120000000     0.909200000000     0.39314    
C34      C      0.511290000000     0.845560000000     0.901600000000     0.384465   
C35      C      0.290940000000     0.829840000000     0.011530000000     0.389622   
C36      C      0.528200000000     0.998120000000     0.803950000000     0.388585   
C37      C      0.668910000000     0.114980000000     0.917600000000     0.389479   
C38      C      0.427680000000     0.949010000000     0.114120000000     0.393546   
C39      C      0.661380000000     0.983820000000     0.005480000000     0.394405   
C40      C      0.443250000000     0.096400000000     0.019990000000     0.39078    
C41      C      0.518010000000     0.149990000000     0.443390000000     0.433324   
C42      C      0.295800000000     0.827860000000     0.428860000000     0.396364   
C43      C      0.397980000000     0.055870000000     0.511920000000     0.354752   
C44      C      0.428010000000     0.948900000000     0.298650000000     0.405316   
C45      C      0.568130000000     0.918380000000     0.376420000000     0.386469   
C46      C      0.526630000000     0.995130000000     0.619830000000     0.402561   
C47      C      0.417280000000     0.789210000000     0.476280000000     0.413094   
C48      C      0.664310000000     0.123230000000     0.492640000000     0.40187    
C49      C      0.461980000000     0.297550000000     0.996580000000     0.383675   
C50      C      0.336520000000     0.512800000000     0.983520000000     0.39003    
C51      C      0.329160000000     0.307920000000     0.918130000000     0.402595   
C52      C      0.481590000000     0.504660000000     0.110680000000     0.410287   
C53      C      0.631400000000     0.634570000000     0.012030000000     0.393776   
C54      C      0.475130000000     0.444220000000     0.804780000000     0.406817   
C55      C      0.500410000000     0.651300000000     0.917260000000     0.39945    
C56      C      0.619250000000     0.440250000000     0.917230000000     0.374374   
C57      C      0.514620000000     0.335310000000     0.449550000000     0.413694   
C58      C      0.323470000000     0.470760000000     0.516440000000     0.382083   
C59      C      0.359660000000     0.306500000000     0.411790000000     0.401216   
C60      C      0.483040000000     0.459740000000     0.620180000000     0.410661   
C61      C      0.613380000000     0.639480000000     0.533520000000     0.398283   
C62      C      0.477910000000     0.496760000000     0.296120000000     0.406291   
C63      C      0.436180000000     0.617290000000     0.467120000000     0.424784   
C64      C      0.633580000000     0.496420000000     0.387470000000     0.387162   
C65      C      0.456220000000     0.474870000000     0.731850000000     0.0314993  
C66      C      0.485200000000     0.409320000000     0.740180000000    -0.000306283
C67      C      0.459960000000     0.479790000000     0.685910000000     0.0334128  
C68      C      0.489630000000     0.414260000000     0.693290000000     0.150989   
C69      C      0.493940000000     0.469540000000     0.230580000000     0.0321517  
C70      C      0.472570000000     0.539940000000     0.223280000000    -0.000133579
C71      C      0.495790000000     0.472770000000     0.184440000000     0.0391308  
C72      C      0.473800000000     0.543180000000     0.176020000000     0.153867   
C73      C      0.410350000000     0.710770000000     0.515850000000     0.026647   
C74      C      0.384480000000     0.712890000000     0.438120000000    -0.00509032 
C75      C      0.416600000000     0.666990000000     0.511990000000     0.038258   
C76      C      0.395550000000     0.672260000000     0.432970000000     0.15597    
C77      C      0.519100000000     0.260980000000     0.486190000000     0.0305988  
C78      C      0.527360000000     0.278560000000     0.407280000000     0.00112335 
C79      C      0.518830000000     0.214070000000     0.483800000000     0.0494407  
C80      C      0.527810000000     0.231390000000     0.404630000000     0.161468   
C81      C      0.555480000000     0.973070000000     0.741340000000     0.0268471  
C82      C      0.521820000000     0.035350000000     0.730080000000     0.000440783
C83      C      0.551830000000     0.970540000000     0.694400000000     0.0347878  
C84      C      0.521170000000     0.035370000000     0.683370000000     0.152567   
C85      C      0.436540000000     0.913130000000     0.188530000000     0.0351818  
C86      C      0.394890000000     0.969300000000     0.176680000000     0.00210339 
C87      C      0.434720000000     0.911910000000     0.235120000000     0.0411763  
C88      C      0.396330000000     0.970910000000     0.223770000000     0.154686   
C89      C      0.561510000000     0.795320000000     0.917370000000     0.0292262  
C90      C      0.473470000000     0.761290000000     0.873290000000    -0.00485067 
C91      C      0.556020000000     0.744190000000     0.923480000000     0.0408448  
C92      C      0.469170000000     0.710780000000     0.877710000000     0.156647   
C93      C      0.494420000000     0.237040000000     0.987610000000     0.0264181  
C94      C      0.413690000000     0.207500000000     0.031030000000    -0.00395624 
C95      C      0.489930000000     0.186920000000     0.994510000000     0.0395127  
C96      C      0.405830000000     0.154970000000     0.034670000000     0.15112    
C97      C      0.803940000000     0.222560000000     0.449800000000     0.036038   
C98      C      0.749000000000     0.264070000000     0.458560000000    -0.00281314 
C99      C      0.761280000000     0.175500000000     0.470800000000     0.0408766  
C100     C      0.709400000000     0.218810000000     0.483630000000     0.153242   
C101     C      0.217360000000     0.696510000000     0.489050000000     0.0219205  
C102     C      0.153570000000     0.731600000000     0.474750000000    -0.0115646  
C103     C      0.259050000000     0.740250000000     0.463980000000     0.02658    
C104     C      0.195880000000     0.776510000000     0.450460000000     0.144737   
C105     C      0.727680000000     0.460820000000     0.464830000000     0.0325001  
C106     C      0.783730000000     0.550240000000     0.438220000000     0.0031679  
C107     C      0.681690000000     0.456060000000     0.434530000000     0.0317193  
C108     C      0.736060000000     0.546430000000     0.409220000000     0.150781   
C109     C      0.222320000000     0.422450000000     0.495520000000     0.0221511  
C110     C      0.276980000000     0.510530000000     0.465160000000    -0.000788977
C111     C      0.173460000000     0.417510000000     0.468300000000     0.0247759  
C112     C      0.228950000000     0.504930000000     0.436200000000     0.148527   
C113     C      0.003460000000     0.478280000000     0.736080000000     0.0312996  
C114     C      0.966800000000     0.538260000000     0.729560000000    -0.00453093 
C115     C      0.006610000000     0.483580000000     0.689940000000     0.0398801  
C116     C      0.969100000000     0.543340000000     0.682400000000     0.153506   
C117     C      0.998280000000     0.430150000000     0.198990000000     0.0279934  
C118     C      0.943290000000     0.474880000000     0.188450000000    -0.00402761 
C119     C      0.992750000000     0.424700000000     0.245660000000     0.0377683  
C120     C      0.935920000000     0.467880000000     0.234370000000     0.15918    
C121     C      0.804090000000     0.231250000000     0.876580000000     0.0259282  
C122     C      0.806310000000     0.224630000000     0.955580000000    -0.00561314 
C123     C      0.752300000000     0.180700000000     0.876780000000     0.0343773  
C124     C      0.754750000000     0.176330000000     0.955970000000     0.15177    
C125     C      0.137380000000     0.728120000000     0.027590000000     0.0254563  
C126     C      0.198550000000     0.691980000000     0.053280000000    -0.0085487  
C127     C      0.187300000000     0.779370000000     0.021420000000     0.0362941  
C128     C      0.247510000000     0.742110000000     0.047740000000     0.151709   
C129     C      0.719020000000     0.488180000000     0.940960000000     0.0238084  
C130     C      0.663880000000     0.399260000000     0.969380000000    -0.00730858 
C131     C      0.765960000000     0.493490000000     0.970470000000     0.0388191  
C132     C      0.711120000000     0.404270000000     0.999150000000     0.14951    
C133     C      0.289420000000     0.559370000000     0.940970000000     0.0365115  
C134     C      0.242350000000     0.466270000000     0.947970000000     0.00178716 
C135     C      0.240070000000     0.557060000000     0.915400000000     0.0417952  
C136     C      0.196910000000     0.464210000000     0.918240000000     0.141874   
C137     C      0.697430000000     0.783010000000     0.540640000000     0.0278909  
C138     C      0.757070000000     0.743990000000     0.560940000000    -0.000773654
C139     C      0.647660000000     0.731500000000     0.542400000000     0.03325    
C140     C      0.708380000000     0.693560000000     0.563680000000     0.158243   
C141     C      0.258680000000     0.177740000000     0.458670000000     0.024678   
C142     C      0.248580000000     0.173640000000     0.380080000000    -0.0055003  
C143     C      0.310250000000     0.225290000000     0.454080000000     0.0379619  
C144     C      0.299720000000     0.224250000000     0.375090000000     0.151107   
C145     C      0.686530000000     0.905050000000     0.437330000000     0.0221974  
C146     C      0.720440000000     0.960900000000     0.370830000000    -0.00236523 
C147     C      0.628930000000     0.889750000000     0.421090000000     0.0350794  
C148     C      0.663580000000     0.948460000000     0.355990000000     0.153958   
C149     C      0.324540000000     0.075590000000     0.486170000000     0.0251422  
C150     C      0.320710000000     0.033780000000     0.559310000000    -0.00323024 
C151     C      0.265680000000     0.058070000000     0.484720000000     0.0307564  
C152     C      0.260360000000     0.016810000000     0.558560000000     0.150969   
C153     C      0.016140000000     0.737290000000     0.454510000000     0.0281417  
C154     C      0.981570000000     0.723440000000     0.378790000000     0.00158105 
C155     C      0.028890000000     0.790190000000     0.446970000000     0.0461877  
C156     C      0.988610000000     0.775320000000     0.372490000000     0.16044    
C157     C      0.988150000000     0.194420000000     0.494230000000     0.025929   
C158     C      0.905780000000     0.161680000000     0.536380000000     0.000153992
C159     C      0.992330000000     0.244290000000     0.488160000000     0.0299931  
C160     C      0.913180000000     0.214130000000     0.533820000000     0.149945   
C161     C      0.936020000000     0.916580000000     0.748780000000     0.0261775  
C162     C      0.913340000000     0.986210000000     0.737960000000    -0.00576688 
C163     C      0.938450000000     0.918140000000     0.702100000000     0.0375631  
C164     C      0.912260000000     0.985820000000     0.690790000000     0.150731   
C165     C      0.046770000000     0.971970000000     0.207790000000     0.03191    
C166     C      0.032390000000     0.046710000000     0.196480000000    -0.00189552 
C167     C      0.048420000000     0.973320000000     0.254430000000     0.0413799  
C168     C      0.031210000000     0.046650000000     0.242980000000     0.159698   
C169     C      0.769740000000     0.732750000000     0.965460000000     0.0156078  
C170     C      0.716940000000     0.776000000000     0.975260000000    -0.0133096  
C171     C      0.728010000000     0.686670000000     0.988310000000     0.0298767  
C172     C      0.675730000000     0.730070000000     0.999140000000     0.146429   
C173     C      0.252780000000     0.179960000000     0.984500000000     0.0187423  
C174     C      0.187300000000     0.212420000000     0.962820000000    -0.013388   
C175     C      0.295360000000     0.222850000000     0.959000000000     0.0307367  
C176     C      0.228160000000     0.253160000000     0.934780000000     0.143553   
C177     C      0.726710000000     0.968110000000     0.057060000000     0.0327661  
C178     C      0.763010000000     0.041270000000     0.002610000000    -0.000581483
C179     C      0.783230000000     0.979570000000     0.071150000000     0.0348859  
C180     C      0.819970000000     0.056310000000     0.019990000000     0.14873    
C181     C      0.228350000000     0.989840000000     0.903210000000     0.0224324  
C182     C      0.197070000000     0.908740000000     0.872220000000    -0.000901737
C183     C      0.172820000000     0.982730000000     0.896410000000     0.0446427  
C184     C      0.139380000000     0.900180000000     0.867910000000     0.153024   
C185     C      0.933180000000     0.723130000000     0.019020000000     0.0302251  
C186     C      0.991870000000     0.757450000000     0.956120000000    -0.00562264 
C187     C      0.919040000000     0.672430000000     0.010320000000     0.0364718  
C188     C      0.979640000000     0.707440000000     0.948050000000     0.157045   
C189     C      0.058180000000     0.237870000000     0.991340000000     0.0398438  
C190     C      0.027000000000     0.231690000000     0.914300000000     0.00813251 
C191     C      0.057230000000     0.284800000000     0.990670000000     0.0444284  
C192     C      0.025000000000     0.278420000000     0.913220000000     0.172668   
H1       H      0.039450000000     0.000220000000     0.873350000000     0.197654   
H2       H      0.911590000000     0.049500000000     0.967700000000     0.214183   
H3       H      0.887980000000     0.852170000000     0.002100000000     0.192158   
H4       H      0.090850000000     0.015890000000     0.056850000000     0.211786   
H5       H      0.859930000000     0.025180000000     0.861960000000     0.145653   
H6       H      0.806380000000     0.998860000000     0.939260000000     0.204499   
H7       H      0.798140000000     0.849880000000     0.050260000000     0.13462    
H8       H      0.940290000000     0.837180000000     0.129090000000     0.2175     
H9       H      0.101380000000     0.918750000000     0.057090000000     0.138803   
H10      H      0.194930000000     0.996750000000     0.001360000000     0.20886    
H11      H      0.148480000000     0.116450000000     0.902810000000     0.14989    
H12      H      0.063310000000     0.103230000000     0.831640000000     0.207796   
H13      H      0.884490000000     0.839350000000     0.098540000000     0.195589   
H14      H      0.228430000000     0.058480000000     0.976450000000     0.21443    
H15      H      0.021810000000     0.132510000000     0.826380000000     0.221102   
H16      H      0.753960000000     0.944880000000     0.965600000000     0.216578   
H17      H      0.841090000000     0.899700000000     0.443040000000     0.196392   
H18      H      0.043950000000     0.067900000000     0.384750000000     0.206427   
H19      H      0.001370000000     0.037860000000     0.563810000000     0.207101   
H20      H      0.041890000000     0.896320000000     0.496780000000     0.204643   
H21      H      0.958100000000     0.090500000000     0.343890000000     0.153588   
H22      H      0.993750000000     0.145710000000     0.408660000000     0.203662   
H23      H      0.122760000000     0.156250000000     0.536170000000     0.14013    
H24      H      0.108500000000     0.054710000000     0.612650000000     0.19799    
H25      H      0.003270000000     0.867360000000     0.608000000000     0.147863   
H26      H      0.964870000000     0.807140000000     0.538340000000     0.206111   
H27      H      0.828380000000     0.814120000000     0.406210000000     0.1361     
H28      H      0.859670000000     0.892620000000     0.336630000000     0.207422   
H29      H      0.108900000000     0.000980000000     0.640270000000     0.223864   
H30      H      0.924730000000     0.765490000000     0.499060000000     0.219256   
H31      H      0.841200000000     0.937600000000     0.311630000000     0.219336   
H32      H      0.062400000000     0.168130000000     0.396000000000     0.204218   
H33      H      0.905180000000     0.414580000000     0.058270000000     0.20733    
H34      H      0.880080000000     0.426160000000     0.871830000000     0.192374   
H35      H      0.028430000000     0.609220000000     0.954400000000     0.215284   
H36      H      0.088580000000     0.456590000000     0.967650000000     0.196725   
H37      H      0.776280000000     0.354720000000     0.893420000000     0.130625   
H38      H      0.821950000000     0.521730000000     0.879860000000     0.209431   
H39      H      0.005350000000     0.626110000000     0.835710000000     0.158055   
H40      H      0.124870000000     0.659170000000     0.902590000000     0.208365   
H41      H      0.177680000000     0.534020000000     0.008010000000     0.137768   
H42      H      0.122980000000     0.423580000000     0.054490000000     0.202012   
H43      H      0.920140000000     0.315030000000     0.059230000000     0.146203   
H44      H      0.777830000000     0.296370000000     0.019530000000     0.216269   
H45      H      0.175090000000     0.673730000000     0.945460000000     0.213403   
H46      H      0.117040000000     0.459080000000     0.091510000000     0.212513   
H47      H      0.742480000000     0.297550000000     0.969940000000     0.208949   
H48      H      0.824590000000     0.481050000000     0.846380000000     0.206385   
H49      H      0.897540000000     0.450960000000     0.552150000000     0.204012   
H50      H      0.892440000000     0.430320000000     0.373920000000     0.206132   
H51      H      0.059460000000     0.611190000000     0.436570000000     0.200392   
H52      H      0.070560000000     0.429770000000     0.493610000000     0.190737   
H53      H      0.781650000000     0.430670000000     0.392120000000     0.138629   
H54      H      0.894210000000     0.569020000000     0.321110000000     0.228179   
H55      H      0.073140000000     0.597260000000     0.333100000000     0.146355   
H56      H      0.154600000000     0.634730000000     0.399580000000     0.202243   
H57      H      0.164560000000     0.502640000000     0.529270000000     0.133574   
H58      H      0.078310000000     0.395610000000     0.580300000000     0.200455   
H59      H      0.891470000000     0.364690000000     0.602790000000     0.140061   
H60      H      0.819830000000     0.328240000000     0.533560000000     0.216928   
H61      H      0.209560000000     0.628350000000     0.427080000000     0.224175   
H62      H      0.093450000000     0.451160000000     0.603010000000     0.205083   
H63      H      0.769430000000     0.347630000000     0.529790000000     0.220407   
H64      H      0.850420000000     0.510260000000     0.347590000000     0.205521   
H65      H      0.458920000000     0.913150000000     0.865510000000     0.19829    
H66      H      0.408680000000     0.881960000000     0.042540000000     0.20904    
H67      H      0.613660000000     0.045730000000     0.991810000000     0.216026   
H68      H      0.418110000000     0.056310000000     0.932850000000     0.202169   
H69      H      0.466770000000     0.805070000000     0.000150000000     0.153303   
H70      H      0.554750000000     0.877260000000     0.093090000000     0.221768   
H71      H      0.604910000000     0.053590000000     0.081540000000     0.144478   
H72      H      0.615330000000     0.160730000000     0.028560000000     0.218494   
H73      H      0.555700000000     0.167400000000     0.894100000000     0.14313    
H74      H      0.387850000000     0.071240000000     0.848580000000     0.204325   
H75      H      0.364400000000     0.910170000000     0.812580000000     0.133053   
H76      H      0.321110000000     0.821210000000     0.879600000000     0.198858   
H77      H      0.622750000000     0.196250000000     0.978810000000     0.20711    
H78      H      0.450880000000     0.093110000000     0.824830000000     0.214864   
H79      H      0.326060000000     0.769270000000     0.906560000000     0.21411    
H80      H      0.482430000000     0.847580000000     0.084780000000     0.215435   
H81      H      0.369540000000     0.944160000000     0.375410000000     0.207338   
H82      H      0.421690000000     0.960620000000     0.559310000000     0.212487   
H83      H      0.531360000000     0.888130000000     0.468460000000     0.198487   
H84      H      0.582770000000     0.094760000000     0.431790000000     0.204612   
H85      H      0.285310000000     0.872600000000     0.534040000000     0.145397   
H86      H      0.363340000000     0.836890000000     0.580340000000     0.202905   
H87      H      0.575820000000     0.904590000000     0.584640000000     0.146485   
H88      H      0.624280000000     0.925150000000     0.509030000000     0.195284   
H89      H      0.684220000000     0.061220000000     0.388050000000     0.151361   
H90      H      0.596210000000     0.105290000000     0.341760000000     0.202944   
H91      H      0.379910000000     0.053530000000     0.362060000000     0.141593   
H92      H      0.271360000000     0.969590000000     0.424410000000     0.211982   
H93      H      0.686850000000     0.979730000000     0.497420000000     0.217929   
H94      H      0.548600000000     0.114520000000     0.305370000000     0.232268   
H95      H      0.248260000000     0.940350000000     0.475450000000     0.224061   
H96      H      0.414890000000     0.836560000000     0.617980000000     0.210625   
H97      H      0.396810000000     0.449620000000     0.042270000000     0.204563   
H98      H      0.396760000000     0.427210000000     0.865460000000     0.198944   
H99      H      0.571630000000     0.604060000000     0.934170000000     0.198933   
H100     H      0.561210000000     0.413290000000     0.992420000000     0.199882   
H101     H      0.301490000000     0.423990000000     0.863500000000     0.155166   
H102     H      0.373590000000     0.527660000000     0.832840000000     0.219749   
H103     H      0.592970000000     0.585220000000     0.837450000000     0.143778   
H104     H      0.676070000000     0.618930000000     0.905050000000     0.195262   
H105     H      0.651250000000     0.496230000000     0.046660000000     0.14746    
H106     H      0.564310000000     0.381900000000     0.080220000000     0.210286   
H107     H      0.366270000000     0.333570000000     0.071730000000     0.135275   
H108     H      0.283760000000     0.333220000000     0.015180000000     0.197151   
H109     H      0.720500000000     0.598510000000     0.933430000000     0.202857   
H110     H      0.568740000000     0.427980000000     0.111240000000     0.211604   
H111     H      0.238280000000     0.348040000000     0.981440000000     0.218831   
H112     H      0.424000000000     0.558800000000     0.794620000000     0.218043   
H113     H      0.405320000000     0.419180000000     0.551020000000     0.206569   
H114     H      0.387160000000     0.439010000000     0.364700000000     0.198928   
H115     H      0.544230000000     0.613010000000     0.453700000000     0.199369   
H116     H      0.583560000000     0.445960000000     0.463540000000     0.203231   
H117     H      0.277960000000     0.390260000000     0.383930000000     0.138513   
H118     H      0.339600000000     0.526020000000     0.361560000000     0.234303   
H119     H      0.560600000000     0.639110000000     0.359150000000     0.136792   
H120     H      0.666050000000     0.659570000000     0.410300000000     0.164219   
H121     H      0.667010000000     0.527450000000     0.529450000000     0.156416   
H122     H      0.609270000000     0.404950000000     0.548840000000     0.208697   
H123     H      0.403530000000     0.314340000000     0.549350000000     0.134592   
H124     H      0.264070000000     0.315910000000     0.506000000000     0.204528   
H126     H      0.606210000000     0.439680000000     0.588020000000     0.22375    
H127     H      0.233800000000     0.329670000000     0.457820000000     0.204739   
H128     H      0.377940000000     0.551530000000     0.315430000000     0.228056   
H129     H      0.448150000000     0.507730000000     0.666730000000     0.0385279  
H130     H      0.441650000000     0.499210000000     0.745080000000     0.0340671  
H131     H      0.496360000000     0.381940000000     0.761160000000     0.0643637  
H132     H      0.506710000000     0.445490000000     0.171880000000     0.0399687  
H133     H      0.503050000000     0.440090000000     0.250170000000     0.048752   
H134     H      0.463190000000     0.567100000000     0.237820000000     0.0668058  
H135     H      0.427270000000     0.649010000000     0.542960000000     0.043132   
H136     H      0.418770000000     0.726240000000     0.548590000000     0.0403929  
H137     H      0.370130000000     0.729650000000     0.408210000000     0.0720962  
H138     H      0.513730000000     0.189610000000     0.515340000000     0.0565109  
H139     H      0.515030000000     0.270560000000     0.519020000000     0.049236   
H140     H      0.531740000000     0.303870000000     0.376380000000     0.0761137  
H141     H      0.563450000000     0.943780000000     0.681760000000     0.0350061  
H142     H      0.568230000000     0.947280000000     0.763120000000     0.0380832  
H143     H      0.508490000000     0.060760000000     0.743080000000     0.0632634  
H144     H      0.451460000000     0.888800000000     0.256520000000     0.0484352  
H145     H      0.453420000000     0.890020000000     0.176300000000     0.046058   
H146     H      0.378480000000     0.992130000000     0.154490000000     0.0742898  
H147     H      0.590070000000     0.738940000000     0.942440000000     0.0456603  
H148     H      0.597910000000     0.827100000000     0.934400000000     0.0410005  
H149     H      0.438980000000     0.766200000000     0.854030000000     0.0595993  
H150     H      0.521640000000     0.181700000000     0.979270000000     0.0221902  
H151     H      0.529760000000     0.267680000000     0.968130000000     0.0407226  
H152     H      0.382980000000     0.214720000000     0.045920000000     0.059658   
H153     H      0.767460000000     0.140930000000     0.473670000000     0.046554   
H154     H      0.841550000000     0.222750000000     0.438510000000     0.0458408  
H155     H      0.742150000000     0.298260000000     0.454410000000     0.0607752  
H156     H      0.299920000000     0.741370000000     0.461430000000     0.0424536  
H157     H      0.228330000000     0.666140000000     0.503520000000     0.0367213  
H158     H      0.111870000000     0.728790000000     0.476890000000     0.0620382  
H159     H      0.642680000000     0.417720000000     0.434890000000     0.0335568  
H160     H      0.721320000000     0.425530000000     0.486260000000     0.0366618  
H161     H      0.824370000000     0.587260000000     0.436950000000     0.0675855  
H162     H      0.133250000000     0.380360000000     0.472020000000     0.0286006  
H163     H      0.217840000000     0.388340000000     0.517870000000     0.0328939  
H164     H      0.317610000000     0.546980000000     0.461200000000     0.0673831  
H165     H      0.024430000000     0.461740000000     0.676780000000     0.041039   
H166     H      0.018460000000     0.452680000000     0.755470000000     0.0511559  
H167     H      0.950780000000     0.560470000000     0.744400000000     0.0704095  
H168     H      0.014530000000     0.406160000000     0.267290000000     0.0431189  
H169     H      0.022920000000     0.414370000000     0.186230000000     0.0456072  
H170     H      0.920610000000     0.492700000000     0.166980000000     0.0681235  
H171     H      0.731200000000     0.165230000000     0.844790000000     0.0362544  
H172     H      0.820990000000     0.252500000000     0.844560000000     0.0446624  
H173     H      0.826410000000     0.238860000000     0.988180000000     0.0648458  
H174     H      0.181020000000     0.812540000000     0.007090000000     0.0399674  
H175     H      0.094800000000     0.724010000000     0.017880000000     0.0456218  
H176     H      0.205510000000     0.658990000000     0.067100000000     0.0706814  
H177     H      0.805550000000     0.531340000000     0.968350000000     0.0361745  
H178     H      0.724560000000     0.522310000000     0.918270000000     0.0246591  
H179     H      0.623400000000     0.362160000000     0.971390000000     0.0535748  
H180     H      0.240310000000     0.594280000000     0.904730000000     0.0445061  
H181     H      0.326030000000     0.597840000000     0.947560000000     0.0550398  
H182     H      0.240970000000     0.428780000000     0.959120000000     0.0453272  
H183     H      0.605460000000     0.728070000000     0.532170000000     0.0339776  
H184     H      0.691480000000     0.817160000000     0.529810000000     0.0339519  
H185     H      0.799500000000     0.746920000000     0.568970000000     0.0649586  
H186     H      0.332890000000     0.243690000000     0.484840000000     0.032477   
H187     H      0.244290000000     0.161500000000     0.492460000000     0.0378532  
H188     H      0.224340000000     0.154340000000     0.350150000000     0.0642806  
H189     H      0.594060000000     0.862120000000     0.442350000000     0.0192523  
H190     H      0.693780000000     0.887020000000     0.469600000000     0.03444    
H191     H      0.755160000000     0.988570000000     0.349380000000     0.0690176  
H192     H      0.246990000000     0.069260000000     0.454100000000     0.0448945  
H193     H      0.347860000000     0.098020000000     0.456360000000     0.0401118  
H194     H      0.340910000000     0.020870000000     0.587960000000     0.069617   
H195     H      0.046700000000     0.814770000000     0.475190000000     0.0266059  
H196     H      0.025510000000     0.724000000000     0.488310000000     0.0476048  
H197     H      0.963390000000     0.698360000000     0.350970000000     0.0672865  
H198     H      0.027420000000     0.275020000000     0.468470000000     0.0377667  
H199     H      0.020300000000     0.189840000000     0.478810000000     0.0337363  
H200     H      0.871380000000     0.129690000000     0.555680000000     0.0670335  
H201     H      0.949380000000     0.890800000000     0.689640000000     0.0371997  
H202     H      0.946160000000     0.888730000000     0.770040000000     0.0506301  
H203     H      0.904430000000     0.014550000000     0.750990000000     0.0655819  
H204     H      0.054010000000     0.943080000000     0.276180000000     0.0515909  
H205     H      0.052530000000     0.941430000000     0.195380000000     0.0483699  
H206     H      0.026850000000     0.076990000000     0.174810000000     0.0705014  
H207     H      0.735390000000     0.652800000000     0.993230000000     0.0325739  
H208     H      0.807170000000     0.732190000000     0.954630000000     0.0385548  
H209     H      0.711850000000     0.811100000000     0.972600000000     0.0616374  
H210     H      0.337780000000     0.225740000000     0.959700000000     0.0411488  
H211     H      0.263920000000     0.151110000000     0.002640000000     0.0424207  
H212     H      0.144460000000     0.208530000000     0.961750000000     0.0640621  
H213     H      0.789140000000     0.952830000000     0.097320000000     0.0421063  
H214     H      0.691080000000     0.933590000000     0.073230000000     0.0415739  
H215     H      0.756040000000     0.066400000000     0.975450000000     0.0705375  
H216     H      0.165190000000     0.013020000000     0.905710000000    -0.00579441 
H217     H      0.262200000000     0.026010000000     0.917010000000     0.0315359  
H218     H      0.206110000000     0.878980000000     0.862280000000     0.0614071  
H219     H      0.889520000000     0.639460000000     0.032300000000     0.0424862  
H220     H      0.913010000000     0.728330000000     0.046210000000     0.0363907  
H221     H      0.022020000000     0.791130000000     0.935030000000     0.0813022  
H222     H      0.070840000000     0.304930000000     0.021480000000     0.0368339  
H223     H      0.071960000000     0.223200000000     0.022820000000     0.0477434  
H224     H      0.014310000000     0.211100000000     0.883770000000     0.0699239  
N1       N      0.471200000000     0.441450000000     0.759230000000    -0.171717   
N2       N      0.478220000000     0.451030000000     0.666100000000    -0.189441   
N3       N      0.481270000000     0.502270000000     0.250210000000    -0.168227   
N4       N      0.484010000000     0.508120000000     0.156450000000    -0.188287   
N5       N      0.401200000000     0.736920000000     0.477710000000    -0.173581   
N6       N      0.415780000000     0.651620000000     0.470030000000    -0.194538   
N7       N      0.521220000000     0.292170000000     0.447810000000    -0.171202   
N8       N      0.521970000000     0.198480000000     0.443160000000    -0.192466   
N9       N      0.537340000000     0.003350000000     0.758920000000    -0.165348   
N10      N      0.534120000000     0.001150000000     0.665370000000    -0.186694   
N11      N      0.418220000000     0.943000000000     0.159310000000    -0.163456   
N12      N      0.418180000000     0.943280000000     0.252970000000    -0.185596   
N13      N      0.517790000000     0.802670000000     0.895150000000    -0.16558    
N14      N      0.508730000000     0.701750000000     0.905470000000    -0.18579    
N15      N      0.456880000000     0.247790000000     0.006100000000    -0.164197   
N16      N      0.445150000000     0.145190000000     0.016850000000    -0.189913   
N17      N      0.796650000000     0.266310000000     0.442160000000    -0.169156   
N18      N      0.712310000000     0.172580000000     0.485820000000    -0.185574   
N19      N      0.163780000000     0.691190000000     0.493390000000    -0.169187   
N20      N      0.249570000000     0.781290000000     0.445630000000    -0.188371   
N21      N      0.779510000000     0.507340000000     0.466010000000    -0.16819    
N22      N      0.684160000000     0.499330000000     0.408450000000    -0.192009   
N23      N      0.274050000000     0.469070000000     0.494290000000    -0.169908   
N24      N      0.176010000000     0.459190000000     0.439510000000    -0.192532   
N25      N      0.981940000000     0.504230000000     0.755940000000    -0.169935   
N26      N      0.987000000000     0.513860000000     0.662450000000    -0.191656   
N27      N      0.975590000000     0.457350000000     0.170810000000    -0.166921   
N28      N      0.964460000000     0.446390000000     0.263330000000    -0.191118   
N29      N      0.829120000000     0.254460000000     0.916190000000    -0.16005    
N30      N      0.726070000000     0.154980000000     0.916440000000    -0.186407   
N31      N      0.143650000000     0.683950000000     0.040650000000    -0.163723   
N32      N      0.242370000000     0.785370000000     0.028490000000    -0.185026   
N33      N      0.667470000000     0.441590000000     0.941110000000    -0.171487   
N34      N      0.762910000000     0.451440000000     0.999010000000    -0.189818   
N35      N      0.289590000000     0.513640000000     0.958700000000    -0.169139   
N36      N      0.192040000000     0.509100000000     0.906250000000    -0.189022   
N37      N      0.752150000000     0.788300000000     0.546030000000    -0.162238   
N38      N      0.654070000000     0.686900000000     0.550240000000    -0.185901   
N39      N      0.225940000000     0.153330000000     0.421710000000    -0.16495    
N40      N      0.327560000000     0.251730000000     0.412490000000    -0.185576   
N41      N      0.732240000000     0.941930000000     0.412700000000    -0.164072   
N42      N      0.618200000000     0.914980000000     0.382400000000    -0.195693   
N43      N      0.350740000000     0.059240000000     0.521460000000    -0.166054   
N44      N      0.232360000000     0.025880000000     0.519430000000    -0.188897   
N45      N      0.993760000000     0.703990000000     0.420290000000    -0.16241    
N46      N      0.013210000000     0.808580000000     0.406680000000    -0.18979    
N47      N      0.944630000000     0.152610000000     0.517570000000    -0.16631    
N48      N      0.955970000000     0.255110000000     0.508350000000    -0.184849   
N49      N      0.926120000000     0.952240000000     0.766900000000    -0.164194   
N50      N      0.927200000000     0.952900000000     0.672980000000    -0.18767    
N51      N      0.036720000000     0.007570000000     0.178890000000    -0.16557    
N52      N      0.036760000000     0.008300000000     0.271670000000    -0.190549   
N53      N      0.763750000000     0.777280000000     0.957980000000    -0.169252   
N54      N      0.678500000000     0.683820000000     0.001890000000    -0.189855   
N55      N      0.199100000000     0.175360000000     0.987150000000    -0.169758   
N56      N      0.284060000000     0.260760000000     0.935310000000    -0.189569   
N57      N      0.716890000000     0.996890000000     0.020880000000    -0.168983   
N58      N      0.829910000000     0.022080000000     0.051300000000    -0.19259    
N59      N      0.239270000000     0.951000000000     0.894290000000    -0.1697     
N60      N      0.127600000000     0.935280000000     0.885120000000    -0.196673   
N61      N      0.966970000000     0.764570000000     0.990210000000    -0.17539    
N62      N      0.941290000000     0.664630000000     0.974410000000    -0.197009   
N63      N      0.037760000000     0.209340000000     0.954260000000    -0.170427   
N64      N      0.036490000000     0.303010000000     0.952830000000    -0.190794   
O1       O      0.158160000000     0.087730000000     0.011350000000    -0.377687   
O2       O      0.107160000000     0.129070000000     0.014640000000    -0.339998   
O3       O      0.943360000000     0.000320000000     0.827460000000    -0.36876    
O4       O      0.932510000000     0.917100000000     0.839220000000    -0.366909   
O5       O      0.008100000000     0.131880000000     0.922760000000    -0.364215   
O6       O      0.022870000000     0.136490000000     0.998700000000    -0.369827   
O7       O      0.078510000000     0.933160000000     0.943460000000    -0.340709   
O8       O      0.026960000000     0.899370000000     0.882220000000    -0.326291   
O9       O      0.145680000000     0.082750000000     0.896000000000    -0.366176   
O10      O      0.193030000000     0.026260000000     0.983850000000    -0.525596   
O11      O      0.030720000000     0.105410000000     0.840750000000    -0.522206   
O12      O      0.891610000000     0.059900000000     0.871020000000    -0.344237   
O13      O      0.047830000000     0.067180000000     0.955450000000    -0.493078   
O14      O      0.023830000000     0.995890000000     0.902200000000    -0.622765   
O15      O      0.970290000000     0.829330000000     0.027690000000    -0.378468   
O16      O      0.967750000000     0.834580000000     0.951040000000    -0.375038   
O17      O      0.881410000000     0.978110000000     0.058760000000    -0.351492   
O18      O      0.930170000000     0.064270000000     0.049500000000    -0.337555   
O19      O      0.804180000000     0.866690000000     0.940820000000    -0.372317   
O20      O      0.854220000000     0.826860000000     0.927370000000    -0.357759   
O21      O      0.017510000000     0.958270000000     0.119310000000    -0.368772   
O22      O      0.028350000000     0.041510000000     0.106880000000    -0.376439   
O23      O      0.925600000000     0.851160000000     0.103000000000    -0.523072   
O24      O      0.073020000000     0.903070000000     0.080930000000    -0.332055   
O25      O      0.783720000000     0.873430000000     0.034050000000    -0.341345   
O26      O      0.794550000000     0.967410000000     0.959940000000    -0.535699   
O27      O      0.913680000000     0.888960000000     0.993040000000    -0.625234   
O28      O      0.940020000000     0.962660000000     0.045330000000    -0.470563   
O29      O      0.029810000000     0.930770000000     0.977720000000    -0.445573   
O30      O      0.930340000000     0.028070000000     0.969190000000    -0.628337   
O31      O      0.061220000000     0.005400000000     0.032560000000    -0.633784   
O32      O      0.900810000000     0.953140000000     0.916050000000    -0.497641   
O33      O      0.960360000000     0.850230000000     0.405560000000    -0.351168   
O34      O      0.057020000000     0.897570000000     0.416420000000    -0.359841   
O35      O      0.826060000000     0.972520000000     0.397120000000    -0.366573   
O36      O      0.802100000000     0.953400000000     0.470460000000    -0.356965   
O37      O      0.982270000000     0.006120000000     0.325970000000    -0.362141   
O38      O      0.056950000000     0.988320000000     0.345480000000    -0.364137   
O39      O      0.837390000000     0.824930000000     0.512370000000    -0.361866   
O40      O      0.808580000000     0.880650000000     0.533550000000    -0.343747   
O41      O      0.842360000000     0.795970000000     0.430550000000    -0.318404   
O42      O      0.941800000000     0.800190000000     0.510190000000    -0.538229   
O43      O      0.862620000000     0.927300000000     0.335200000000    -0.524821   
O44      O      0.917360000000     0.062820000000     0.348050000000    -0.330697   
O45      O      0.964120000000     0.930810000000     0.406700000000    -0.48507    
O46      O      0.881360000000     0.923430000000     0.450840000000    -0.627877   
O47      O      0.978850000000     0.950910000000     0.617890000000    -0.372734   
O48      O      0.902230000000     0.966010000000     0.597910000000    -0.349372   
O49      O      0.141280000000     0.119850000000     0.456680000000    -0.360191   
O50      O      0.148130000000     0.071030000000     0.406430000000    -0.350217   
O51      O      0.996210000000     0.109010000000     0.527150000000    -0.381659   
O52      O      0.899210000000     0.059200000000     0.520810000000    -0.336137   
O53      O      0.140680000000     0.994600000000     0.545020000000    -0.337754   
O54      O      0.153030000000     0.998040000000     0.470480000000    -0.368546   
O55      O      0.096690000000     0.017330000000     0.614350000000    -0.51853    
O56      O      0.038630000000     0.885910000000     0.590590000000    -0.349352   
O57      O      0.107330000000     0.167720000000     0.507880000000    -0.33248    
O58      O      0.029960000000     0.144940000000     0.414300000000    -0.538599   
O59      O      0.995520000000     0.021560000000     0.536170000000    -0.617654   
O60      O      0.079620000000     0.028700000000     0.492760000000    -0.491747   
O61      O      0.936490000000     0.913590000000     0.532950000000    -0.48866    
O62      O      0.024360000000     0.041760000000     0.409090000000    -0.635125   
O63      O      0.023560000000     0.918290000000     0.490180000000    -0.627286   
O64      O      0.938630000000     0.035550000000     0.453650000000    -0.488091   
O65      O      0.023940000000     0.356650000000     0.995360000000    -0.370887   
O66      O      0.017030000000     0.365950000000     0.919040000000    -0.360593   
O67      O      0.819740000000     0.414770000000     0.027070000000    -0.364856   
O68      O      0.858320000000     0.501650000000     0.024750000000    -0.325995   
O69      O      0.879460000000     0.326350000000     0.957270000000    -0.33333    
O70      O      0.904060000000     0.338300000000     0.887000000000    -0.326704   
O71      O      0.999230000000     0.437320000000     0.107440000000    -0.374586   
O72      O      0.967350000000     0.497890000000     0.102210000000    -0.382164   
O73      O      0.958680000000     0.333990000000     0.075240000000    -0.329598   
O74      O      0.100960000000     0.437290000000     0.066350000000    -0.535602   
O75      O      0.776220000000     0.314220000000     0.990310000000    -0.521212   
O76      O      0.781700000000     0.384600000000     0.909740000000    -0.353703   
O77      O      0.941860000000     0.386310000000     0.969350000000    -0.467473   
O78      O      0.924620000000     0.431680000000     0.030710000000    -0.620869   
O79      O      0.114490000000     0.598010000000     0.029590000000    -0.357593   
O80      O      0.044880000000     0.618130000000     0.035490000000    -0.343692   
O81      O      0.962040000000     0.525080000000     0.820490000000    -0.376342   
O82      O      0.984840000000     0.458930000000     0.823260000000    -0.381048   
O83      O      0.937600000000     0.603480000000     0.931580000000    -0.361232   
O84      O      0.927170000000     0.586330000000     0.007080000000    -0.372633   
O85      O      0.133650000000     0.547210000000     0.895840000000    -0.367      
O86      O      0.092600000000     0.460580000000     0.889050000000    -0.321894   
O87      O      0.140390000000     0.648080000000     0.929980000000    -0.536027   
O88      O      0.186480000000     0.567800000000     0.989830000000    -0.33955    
O89      O      0.963400000000     0.610170000000     0.840370000000    -0.312443   
O90      O      0.842910000000     0.506420000000     0.868880000000    -0.524354   
O91      O      0.012260000000     0.571230000000     0.956040000000    -0.629847   
O92      O      0.025310000000     0.523420000000     0.896540000000    -0.486737   
O93      O      0.043740000000     0.512340000000     0.026820000000    -0.485956   
O94      O      0.904950000000     0.441000000000     0.898160000000    -0.628178   
O95      O      0.056420000000     0.463710000000     0.965650000000    -0.627707   
O96      O      0.894600000000     0.489520000000     0.961130000000    -0.49037    
O97      O      0.957260000000     0.329060000000     0.531760000000    -0.33529    
O98      O      0.979130000000     0.329330000000     0.460350000000    -0.354546   
O99      O      0.822690000000     0.462840000000     0.505570000000    -0.38855    
O100     O      0.878130000000     0.548770000000     0.489280000000    -0.329381   
O101     O      0.826870000000     0.351590000000     0.413600000000    -0.380608   
O102     O      0.890330000000     0.321750000000     0.419550000000    -0.340509   
O103     O      0.988030000000     0.471420000000     0.604490000000    -0.383896   
O104     O      0.975850000000     0.543800000000     0.588380000000    -0.358873   
O105     O      0.927200000000     0.361490000000     0.604990000000    -0.316482   
O106     O      0.068850000000     0.423120000000     0.583750000000    -0.536313   
O107     O      0.804860000000     0.351410000000     0.519850000000    -0.540085   
O108     O      0.768620000000     0.405140000000     0.419100000000    -0.337866   
O109     O      0.921760000000     0.386090000000     0.481060000000    -0.494489   
O110     O      0.920200000000     0.458390000000     0.526430000000    -0.619905   
O111     O      0.128050000000     0.603680000000     0.519230000000    -0.363146   
O112     O      0.067740000000     0.637070000000     0.511330000000    -0.3396     
O113     O      0.967440000000     0.491770000000     0.320280000000    -0.362667   
O114     O      0.976570000000     0.417290000000     0.336930000000    -0.373492   
O115     O      0.979240000000     0.625580000000     0.395180000000    -0.35332    
O116     O      0.983210000000     0.634250000000     0.470180000000    -0.353974   
O117     O      0.123360000000     0.499880000000     0.409360000000    -0.349464   
O118     O      0.077450000000     0.412890000000     0.418860000000    -0.35684    
O119     O      0.168390000000     0.615820000000     0.421950000000    -0.529086   
O120     O      0.182200000000     0.535130000000     0.508410000000    -0.343799   
O121     O      0.039220000000     0.603360000000     0.329250000000    -0.329391   
O122     O      0.889020000000     0.538960000000     0.341990000000    -0.519747   
O123     O      0.036510000000     0.573810000000     0.445290000000    -0.631678   
O124     O      0.036460000000     0.502380000000     0.401890000000    -0.471508   
O125     O      0.039420000000     0.515760000000     0.526180000000    -0.475518   
O126     O      0.916850000000     0.444780000000     0.400500000000    -0.617217   
O127     O      0.045540000000     0.445050000000     0.484250000000    -0.6243     
O128     O      0.911380000000     0.513790000000     0.443330000000    -0.494351   
O129     O      0.320210000000     0.947470000000     0.881780000000    -0.359127   
O130     O      0.310920000000     0.969440000000     0.949550000000    -0.36602    
O131     O      0.458880000000     0.835760000000     0.903920000000    -0.380844   
O132     O      0.556070000000     0.891590000000     0.909060000000    -0.35183    
O133     O      0.325770000000     0.820760000000     0.991830000000    -0.35237    
O134     O      0.300870000000     0.877660000000     0.016480000000    -0.345879   
O135     O      0.485610000000     0.003870000000     0.814040000000    -0.366199   
O136     O      0.559840000000     0.985530000000     0.833520000000    -0.369111   
O137     O      0.369970000000     0.946740000000     0.807910000000    -0.317953   
O138     O      0.420520000000     0.066710000000     0.843570000000    -0.528751   
O139     O      0.339070000000     0.806950000000     0.902960000000    -0.522159   
O140     O      0.424770000000     0.793720000000     0.998200000000    -0.327536   
O141     O      0.377280000000     0.923270000000     0.935190000000    -0.490198   
O142     O      0.463670000000     0.930000000000     0.892630000000    -0.62837    
O143     O      0.635320000000     0.123490000000     0.939390000000    -0.365338   
O144     O      0.652570000000     0.069610000000     0.901740000000    -0.339326   
O145     O      0.470850000000     0.944300000000     0.103930000000    -0.366693   
O146     O      0.395040000000     0.960480000000     0.084400000000    -0.350866   
O147     O      0.623040000000     0.967070000000     0.035190000000    -0.369286   
O148     O      0.651180000000     0.992200000000     0.962840000000    -0.364604   
O149     O      0.491610000000     0.095920000000     0.022660000000    -0.356815   
O150     O      0.394930000000     0.052660000000     0.015520000000    -0.338433   
O151     O      0.605030000000     0.162530000000     0.996650000000    -0.517565   
O152     O      0.517280000000     0.142660000000     0.906210000000    -0.363993   
O153     O      0.592760000000     0.017430000000     0.096230000000    -0.319184   
O154     O      0.520110000000     0.878430000000     0.080630000000    -0.530383   
O155     O      0.573840000000     0.024510000000     0.981380000000    -0.634987   
O156     O      0.489520000000     0.018090000000     0.022540000000    -0.470773   
O157     O      0.524750000000     0.039370000000     0.897010000000    -0.490736   
O158     O      0.428060000000     0.908090000000     0.018140000000    -0.634307   
O159     O      0.435290000000     0.033420000000     0.939690000000    -0.61769    
O160     O      0.516040000000     0.913890000000     0.975770000000    -0.492521   
O161     O      0.501100000000     0.125520000000     0.406990000000    -0.347516   
O162     O      0.527620000000     0.130030000000     0.481690000000    -0.373731   
O163     O      0.295240000000     0.871490000000     0.430130000000    -0.363768   
O164     O      0.342010000000     0.827590000000     0.419050000000    -0.339565   
O165     O      0.396450000000     0.040070000000     0.473760000000    -0.317486   
O166     O      0.439100000000     0.059620000000     0.540810000000    -0.328917   
O167     O      0.443550000000     0.994820000000     0.312160000000    -0.350917   
O168     O      0.425960000000     0.909450000000     0.325560000000    -0.370674   
O169     O      0.413610000000     0.069440000000     0.342890000000    -0.302616   
O170     O      0.556950000000     0.098350000000     0.333380000000    -0.52371    
O171     O      0.277130000000     0.953240000000     0.453270000000    -0.523092   
O172     O      0.312500000000     0.910230000000     0.539250000000    -0.357486   
O173     O      0.443210000000     0.030730000000     0.452210000000    -0.45353    
O174     O      0.400310000000     0.953880000000     0.398840000000    -0.635606   
O175     O      0.573690000000     0.964400000000     0.376120000000    -0.336678   
O176     O      0.519070000000     0.879010000000     0.387560000000    -0.3508     
O177     O      0.510330000000     0.948700000000     0.606790000000    -0.374598   
O178     O      0.533600000000     0.035370000000     0.592320000000    -0.35381    
O179     O      0.434900000000     0.813320000000     0.513030000000    -0.366252   
O180     O      0.418680000000     0.812240000000     0.436870000000    -0.375771   
O181     O      0.662670000000     0.086430000000     0.471950000000    -0.387414   
O182     O      0.619590000000     0.117470000000     0.511610000000    -0.333232   
O183     O      0.645070000000     0.959770000000     0.493150000000    -0.534207   
O184     O      0.686990000000     0.038560000000     0.414810000000    -0.329713   
O185     O      0.542870000000     0.872980000000     0.571740000000    -0.353968   
O186     O      0.403770000000     0.848100000000     0.588670000000    -0.524267   
O187     O      0.517710000000     0.913640000000     0.466510000000    -0.624969   
O188     O      0.556580000000     0.990130000000     0.519730000000    -0.504632   
O189     O      0.521040000000     0.983750000000     0.388520000000    -0.463629   
O190     O      0.436410000000     0.961760000000     0.530850000000    -0.628921   
O191     O      0.554310000000     0.058660000000     0.440250000000    -0.62919    
O192     O      0.403960000000     0.889150000000     0.477300000000    -0.494572   
O193     O      0.452620000000     0.319890000000     0.027360000000    -0.352824   
O194     O      0.477420000000     0.320220000000     0.956810000000    -0.355885   
O195     O      0.331850000000     0.467900000000     0.997580000000    -0.386866   
O196     O      0.387840000000     0.554010000000     0.984390000000    -0.326821   
O197     O      0.320240000000     0.347310000000     0.907860000000    -0.371986   
O198     O      0.381520000000     0.314810000000     0.920220000000    -0.345482   
O199     O      0.481410000000     0.463500000000     0.098630000000    -0.37898    
O200     O      0.479060000000     0.540810000000     0.082040000000    -0.351325   
O201     O      0.402080000000     0.352270000000     0.091030000000    -0.330007   
O202     O      0.551030000000     0.405990000000     0.086290000000    -0.536743   
O203     O      0.277360000000     0.354960000000     0.990470000000    -0.526361   
O204     O      0.299710000000     0.440820000000     0.889610000000    -0.340443   
O205     O      0.414880000000     0.380880000000     0.973530000000    -0.500096   
O206     O      0.419450000000     0.456370000000     0.016690000000    -0.614153   
O207     O      0.639180000000     0.594050000000     0.015620000000    -0.373272   
O208     O      0.579640000000     0.629190000000     0.009850000000    -0.328263   
O209     O      0.478400000000     0.486260000000     0.817230000000    -0.390176   
O210     O      0.475390000000     0.406270000000     0.832610000000    -0.373514   
O211     O      0.490510000000     0.620990000000     0.885520000000    -0.345183   
O212     O      0.502700000000     0.636620000000     0.959690000000    -0.338352   
O213     O      0.618110000000     0.483680000000     0.907420000000    -0.359805   
O214     O      0.570500000000     0.396900000000     0.916340000000    -0.350158   
O215     O      0.682020000000     0.594390000000     0.927020000000    -0.53075    
O216     O      0.666920000000     0.503260000000     0.016550000000    -0.352072   
O217     O      0.564190000000     0.598000000000     0.832540000000    -0.342199   
O218     O      0.412870000000     0.541210000000     0.824320000000    -0.524512   
O219     O      0.545510000000     0.567030000000     0.942160000000    -0.63601    
O220     O      0.540350000000     0.491060000000     0.900120000000    -0.471422   
O221     O      0.537170000000     0.505580000000     0.023050000000    -0.480395   
O222     O      0.420920000000     0.441330000000     0.892230000000    -0.622699   
O223     O      0.538880000000     0.431080000000     0.982060000000    -0.626984   
O224     O      0.420600000000     0.516280000000     0.934380000000    -0.489847   
O225     O      0.510420000000     0.347840000000     0.488440000000    -0.37751    
O226     O      0.510690000000     0.359810000000     0.412030000000    -0.375931   
O227     O      0.326410000000     0.428160000000     0.521210000000    -0.38537    
O228     O      0.371410000000     0.515200000000     0.518460000000    -0.33141    
O229     O      0.346080000000     0.326560000000     0.441010000000    -0.376693   
O230     O      0.402900000000     0.335500000000     0.385870000000    -0.32487    
O231     O      0.494360000000     0.429520000000     0.600470000000    -0.365779   
O232     O      0.474020000000     0.496930000000     0.598630000000    -0.384063   
O233     O      0.442490000000     0.328100000000     0.565070000000    -0.316091   
O234     O      0.589530000000     0.420400000000     0.561440000000    -0.530082   
O235     O      0.267630000000     0.337650000000     0.478010000000    -0.518042   
O236     O      0.293960000000     0.421720000000     0.401460000000    -0.355999   
O237     O      0.434640000000     0.386680000000     0.461970000000    -0.496179   
O238     O      0.425760000000     0.436210000000     0.523860000000    -0.625435   
O239     O      0.632740000000     0.620600000000     0.507400000000    -0.361829   
O240     O      0.558940000000     0.616990000000     0.542430000000    -0.347989   
O241     O      0.471300000000     0.530950000000     0.314870000000    -0.372034   
O242     O      0.481850000000     0.457430000000     0.318260000000    -0.380745   
O243     O      0.433530000000     0.600220000000     0.428690000000    -0.347793   
O244     O      0.456420000000     0.603110000000     0.503710000000    -0.382325   
O245     O      0.625470000000     0.536000000000     0.388140000000    -0.341351   
O246     O      0.588190000000     0.450580000000     0.382910000000    -0.339066   
O247     O      0.676010000000     0.635020000000     0.428690000000    -0.327026   
O248     O      0.677190000000     0.535940000000     0.497510000000    -0.337951   
O249     O      0.520890000000     0.634710000000     0.356100000000    -0.325363   
O250     O      0.375700000000     0.539640000000     0.347150000000    -0.524806   
O251     O      0.527160000000     0.574900000000     0.454390000000    -0.635696   
O252     O      0.535000000000     0.522950000000     0.393230000000    -0.479719   
O253     O      0.548530000000     0.508190000000     0.523770000000    -0.500831   
O254     O      0.412190000000     0.451290000000     0.391510000000    -0.631519   
O255     O      0.554480000000     0.456950000000     0.461320000000    -0.635311   
O256     O      0.408070000000     0.503640000000     0.455480000000    -0.488105   
Zr1      Zr     0.099630000000     0.020090000000     0.960640000000     1.36462    
Zr2      Zr     0.971250000000     0.042830000000     0.898910000000     1.38423    
Zr3      Zr     0.991470000000     0.915310000000     0.048890000000     1.38301    
Zr4      Zr     0.863360000000     0.937920000000     0.988550000000     1.36845    
Zr5      Zr     0.008910000000     0.053020000000     0.026540000000     1.40252    
Zr6      Zr     0.952400000000     0.904980000000     0.920040000000     1.37462    
Zr7      Zr     0.923430000000     0.867780000000     0.468800000000     1.38045    
Zr8      Zr     0.924080000000     0.988400000000     0.390100000000     1.39381    
Zr9      Zr     0.036840000000     0.964890000000     0.553810000000     1.38132    
Zr10     Zr     0.039720000000     0.085490000000     0.474190000000     1.37875    
Zr11     Zr     0.064510000000     0.983450000000     0.427500000000     1.36953    
Zr12     Zr     0.893110000000     0.970260000000     0.515080000000     1.34363    
Zr13     Zr     0.007270000000     0.419420000000     0.031640000000     1.39508    
Zr14     Zr     0.859330000000     0.396850000000     0.966880000000     1.36913    
Zr15     Zr     0.092280000000     0.556430000000     0.959810000000     1.38657    
Zr16     Zr     0.942210000000     0.534480000000     0.895320000000     1.39038    
Zr17     Zr     0.988970000000     0.429970000000     0.901650000000     1.37929    
Zr18     Zr     0.961970000000     0.526110000000     0.023340000000     1.37197    
Zr19     Zr     0.984270000000     0.422260000000     0.543800000000     1.38094    
Zr20     Zr     0.857740000000     0.420790000000     0.462920000000     1.39323    
Zr21     Zr     0.100230000000     0.538350000000     0.465520000000     1.3878     
Zr22     Zr     0.971990000000     0.538340000000     0.383420000000     1.39098    
Zr23     Zr     0.981510000000     0.407850000000     0.419440000000     1.35952    
Zr24     Zr     0.975220000000     0.552690000000     0.506400000000     1.36773    
Zr25     Zr     0.424740000000     0.988150000000     0.875740000000     1.38147    
Zr26     Zr     0.416000000000     0.865370000000     0.952570000000     1.39839    
Zr27     Zr     0.535350000000     0.082820000000     0.961880000000     1.3751     
Zr28     Zr     0.527390000000     0.958510000000     0.040060000000     1.39891    
Zr29     Zr     0.388180000000     0.967080000000     0.000920000000     1.35039    
Zr30     Zr     0.564580000000     0.980490000000     0.916210000000     1.34863    
Zr31     Zr     0.479700000000     0.040150000000     0.382070000000     1.39748    
Zr32     Zr     0.364810000000     0.947040000000     0.470360000000     1.36431    
Zr33     Zr     0.593640000000     0.000350000000     0.448340000000     1.37521    
Zr34     Zr     0.476730000000     0.904110000000     0.535970000000     1.37684    
Zr35     Zr     0.516130000000     0.047760000000     0.511970000000     1.39032    
Zr36     Zr     0.443050000000     0.897620000000     0.407080000000     1.3803     
Zr37     Zr     0.474990000000     0.412440000000     0.038400000000     1.38542    
Zr38     Zr     0.359010000000     0.423710000000     0.950450000000     1.39701    
Zr39     Zr     0.600790000000     0.523570000000     0.965800000000     1.38497    
Zr40     Zr     0.484070000000     0.534330000000     0.878080000000     1.40434    
Zr41     Zr     0.477410000000     0.397180000000     0.915400000000     1.36474    
Zr42     Zr     0.481900000000     0.551060000000     0.999970000000     1.36975    
Zr43     Zr     0.500840000000     0.413980000000     0.524740000000     1.40637    
Zr44     Zr     0.361220000000     0.410470000000     0.458300000000     1.38965    
Zr45     Zr     0.600360000000     0.550680000000     0.457920000000     1.3906     
Zr46     Zr     0.460560000000     0.545860000000     0.390860000000     1.40173    
Zr47     Zr     0.487540000000     0.427990000000     0.396490000000     1.37917    
Zr48     Zr     0.473540000000     0.531320000000     0.520180000000     1.37171    


