data_structure

_audit_creation_method RASPA-1.0
_audit_creation_date 2023-6-4
_audit_author_name 'Poobodin Mano'

_cell_length_a    26.0785
_cell_length_b    28.4481
_cell_length_c    28.5841
_cell_angle_alpha 82.7359
_cell_angle_beta  96.3407
_cell_angle_gamma 119.444
_cell_volume      18290.2

_symmetry_cell_setting          triclinic
_symmetry_space_group_name_Hall 'P 1'
_symmetry_space_group_name_H-M  'P 1'
_symmetry_Int_Tables_number     1

_symmetry_equiv_pos_as_xyz 'x,y,z'

loop_
_atom_site_label
_atom_site_type_symbol
_atom_site_fract_x
_atom_site_fract_y
_atom_site_fract_z
_atom_site_charge
C1       C      0.164200000000     0.123410000000     0.007770000000     0.386265   
C2       C      0.917990000000     0.928060000000     0.828580000000     0.391284   
C3       C      0.019800000000     0.152950000000     0.957470000000     0.4004     
C4       C      0.075330000000     0.894540000000     0.913740000000     0.400457   
C5       C      0.980950000000     0.801670000000     0.014230000000     0.409437   
C6       C      0.884240000000     0.037040000000     0.072410000000     0.392756   
C7       C      0.801730000000     0.820230000000     0.959050000000     0.379107   
C8       C      0.031460000000     0.010230000000     0.149980000000     0.399349   
C9       C      0.050230000000     0.881220000000     0.418350000000     0.373863   
C10      C      0.810410000000     0.963610000000     0.436340000000     0.377142   
C11      C      0.050550000000     0.993080000000     0.331430000000     0.390026   
C12      C      0.827180000000     0.844340000000     0.546140000000     0.384243   
C13      C      0.937670000000     0.943840000000     0.641920000000     0.397604   
C14      C      0.186560000000     0.147650000000     0.423860000000     0.374781   
C15      C      0.942830000000     0.112590000000     0.532040000000     0.397907   
C16      C      0.204800000000     0.029950000000     0.539980000000     0.384584   
C17      C      0.010630000000     0.330900000000     0.968470000000     0.401747   
C18      C      0.821050000000     0.445110000000     0.079060000000     0.390709   
C19      C      0.860580000000     0.301480000000     0.931720000000     0.391981   
C20      C      0.012380000000     0.469660000000     0.153740000000     0.395411   
C21      C      0.111800000000     0.636870000000     0.062470000000     0.387674   
C22      C      0.945010000000     0.489020000000     0.815680000000     0.398869   
C23      C      0.919230000000     0.609550000000     0.004460000000     0.396418   
C24      C      0.126240000000     0.508800000000     0.890850000000     0.38944    
C25      C      0.970190000000     0.312600000000     0.522060000000     0.381449   
C26      C      0.849430000000     0.536910000000     0.487960000000     0.384088   
C27      C      0.855220000000     0.326870000000     0.423330000000     0.399493   
C28      C      0.987200000000     0.527230000000     0.634850000000     0.393604   
C29      C      0.143130000000     0.656870000000     0.551230000000     0.389163   
C30      C      0.057320000000     0.480810000000     0.331770000000     0.404361   
C31      C      0.025440000000     0.676000000000     0.431300000000     0.388428   
C32      C      0.145220000000     0.457500000000     0.458720000000     0.372907   
C33      C      0.285460000000     0.942700000000     0.943360000000     0.387915   
C34      C      0.511620000000     0.843270000000     0.923480000000     0.382657   
C35      C      0.298080000000     0.829570000000     0.058430000000     0.375106   
C36      C      0.540520000000     0.010780000000     0.833090000000     0.393722   
C37      C      0.668430000000     0.113350000000     0.941980000000     0.380862   
C38      C      0.425040000000     0.942180000000     0.153370000000     0.394164   
C39      C      0.672890000000     0.991350000000     0.041090000000     0.373008   
C40      C      0.445010000000     0.098560000000     0.055300000000     0.377785   
C41      C      0.542020000000     0.177830000000     0.463260000000     0.391853   
C42      C      0.321620000000     0.830830000000     0.493740000000     0.398476   
C43      C      0.415200000000     0.065680000000     0.584280000000     0.390485   
C44      C      0.430940000000     0.947570000000     0.342680000000     0.394312   
C45      C      0.588850000000     0.932160000000     0.404330000000     0.380041   
C46      C      0.592390000000     0.049700000000     0.654560000000     0.388521   
C47      C      0.504270000000     0.825060000000     0.526490000000     0.390952   
C48      C      0.686510000000     0.149150000000     0.510020000000     0.37357    
C49      C      0.463040000000     0.301420000000     0.044870000000     0.376925   
C50      C      0.320600000000     0.509720000000     0.961510000000     0.385591   
C51      C      0.358170000000     0.306420000000     0.931820000000     0.392133   
C52      C      0.420620000000     0.502320000000     0.127630000000     0.393425   
C53      C      0.603500000000     0.645700000000     0.044330000000     0.36928    
C54      C      0.521880000000     0.442550000000     0.836340000000     0.387238   
C55      C      0.501010000000     0.652020000000     0.922330000000     0.383335   
C56      C      0.645720000000     0.451380000000     0.990550000000     0.380256   
C57      C      0.553710000000     0.365980000000     0.456690000000     0.405962   
C58      C      0.346550000000     0.468920000000     0.562440000000     0.384278   
C59      C      0.373980000000     0.338230000000     0.401300000000     0.389177   
C60      C      0.531860000000     0.480600000000     0.650920000000     0.385701   
C61      C      0.632790000000     0.660200000000     0.563380000000     0.388652   
C62      C      0.469260000000     0.517050000000     0.311410000000     0.384237   
C63      C      0.449530000000     0.632440000000     0.507870000000     0.402341   
C64      C      0.653770000000     0.537970000000     0.388620000000     0.375284   
C65      C      0.577210000000     0.457740000000     0.726260000000    -0.0169747  
C66      C      0.493970000000     0.479580000000     0.726190000000    -0.04392    
C67      C      0.550790000000     0.415260000000     0.769170000000    -0.0108685  
C68      C      0.463590000000     0.429080000000     0.759610000000     0.0927056  
C69      C      0.468940000000     0.566860000000     0.233080000000    -0.0182953  
C70      C      0.427280000000     0.464360000000     0.242310000000    -0.0435613  
C71      C      0.425600000000     0.559730000000     0.188950000000    -0.0118293  
C72      C      0.377870000000     0.461020000000     0.206690000000     0.0909833  
C73      C      0.510060000000     0.759750000000     0.482580000000    -0.010856   
C74      C      0.497980000000     0.741750000000     0.569710000000    -0.0458288  
C75      C      0.448160000000     0.713700000000     0.473180000000    -0.0123189  
C76      C      0.437390000000     0.691830000000     0.559580000000     0.0918552  
C77      C      0.615880000000     0.272040000000     0.476390000000    -0.0139584  
C78      C      0.547210000000     0.250040000000     0.403670000000    -0.0388373  
C79      C      0.599370000000     0.312020000000     0.489850000000    -0.00610796 
C80      C      0.561680000000     0.309760000000     0.401910000000     0.0890341  
C81      C      0.632310000000     0.031680000000     0.733750000000    -0.0143329  
C82      C      0.598890000000     0.099810000000     0.721720000000    -0.0421063  
C83      C      0.585100000000     0.996820000000     0.769010000000    -0.0108285  
C84      C      0.549300000000     0.066820000000     0.756140000000     0.0908409  
C85      C      0.408300000000     0.977330000000     0.262480000000    -0.0137813  
C86      C      0.439270000000     0.904230000000     0.277320000000    -0.0435521  
C87      C      0.375460000000     0.952730000000     0.216580000000    -0.00975714 
C88      C      0.406850000000     0.882830000000     0.230230000000     0.0910028  
C89      C      0.456380000000     0.758220000000     0.884530000000    -0.0116928  
C90      C      0.566740000000     0.801860000000     0.895020000000    -0.0391733  
C91      C      0.451910000000     0.706920000000     0.911770000000    -0.00611611 
C92      C      0.553890000000     0.745210000000     0.880300000000     0.0890872  
C93      C      0.511600000000     0.245280000000     0.056210000000    -0.0129088  
C94      C      0.412560000000     0.207990000000     0.087450000000    -0.0404219  
C95      C      0.491160000000     0.194760000000     0.031180000000    -0.011205   
C96      C      0.393410000000     0.151680000000     0.068540000000     0.0872184  
C97      C      0.773800000000     0.180180000000     0.464120000000    -0.0133684  
C98      C      0.719560000000     0.235040000000     0.460740000000    -0.0363343  
C99      C      0.827150000000     0.232030000000     0.443670000000    -0.00578993 
C100     C      0.750000000000     0.259500000000     0.414030000000     0.0914767  
C101     C      0.188040000000     0.756800000000     0.548170000000    -0.018748   
C102     C      0.250240000000     0.713620000000     0.564280000000    -0.0381516  
C103     C      0.213570000000     0.779120000000     0.498790000000    -0.00756539 
C104     C      0.272330000000     0.730820000000     0.513840000000     0.0885897  
C105     C      0.815570000000     0.594710000000     0.436580000000    -0.0132684  
C106     C      0.744080000000     0.496510000000     0.462480000000    -0.0431585  
C107     C      0.759380000000     0.596090000000     0.412420000000    -0.00691835 
C108     C      0.714440000000     0.493800000000     0.413080000000     0.0895588  
C109     C      0.299750000000     0.509950000000     0.508030000000    -0.0122894  
C110     C      0.242960000000     0.411280000000     0.538560000000    -0.0331521  
C111     C      0.242090000000     0.509950000000     0.496170000000    -0.00885836 
C112     C      0.184240000000     0.410200000000     0.520140000000     0.0876038  
C113     C      0.015420000000     0.506140000000     0.716230000000    -0.0131724  
C114     C      0.971620000000     0.567390000000     0.701140000000    -0.0411398  
C115     C      0.962030000000     0.463800000000     0.742150000000    -0.00972772 
C116     C      0.922090000000     0.528220000000     0.734690000000     0.0882295  
C117     C      0.047740000000     0.521800000000     0.223400000000    -0.0102553  
C118     C      0.018910000000     0.421390000000     0.230680000000    -0.0461697  
C119     C      0.100330000000     0.530960000000     0.257620000000    -0.0125524  
C120     C      0.070600000000     0.434350000000     0.267690000000     0.0912878  
C121     C      0.756350000000     0.162110000000     0.892410000000    -0.0180825  
C122     C      0.758520000000     0.182150000000     0.977690000000    -0.043057   
C123     C      0.807410000000     0.222230000000     0.884040000000    -0.0133253  
C124     C      0.824370000000     0.208620000000     0.971290000000     0.0930093  
C125     C      0.260510000000     0.742680000000     0.106890000000    -0.014181   
C126     C      0.193830000000     0.783120000000     0.083170000000    -0.0381382  
C127     C      0.216140000000     0.690890000000     0.084900000000    -0.00366995 
C128     C      0.144510000000     0.724160000000     0.099020000000     0.0868345  
C129     C      0.689830000000     0.393680000000     0.026910000000    -0.0165773  
C130     C      0.748460000000     0.495670000000     0.024670000000    -0.0453741  
C131     C      0.712550000000     0.391590000000     0.079360000000    -0.012408   
C132     C      0.759270000000     0.489430000000     0.078470000000     0.09158    
C133     C      0.279440000000     0.568700000000     0.923490000000    -0.0165139  
C134     C      0.251530000000     0.479570000000     0.891960000000    -0.039852   
C135     C      0.234460000000     0.568460000000     0.883200000000    -0.00797467 
C136     C      0.187010000000     0.466650000000     0.881750000000     0.0897305  
C137     C      0.669550000000     0.755740000000     0.575130000000    -0.0153174  
C138     C      0.726530000000     0.707410000000     0.607560000000    -0.0379577  
C139     C      0.730850000000     0.806390000000     0.583110000000    -0.0119975  
C140     C      0.778260000000     0.747490000000     0.577270000000     0.0904684  
C141     C      0.275000000000     0.287850000000     0.365540000000    -0.0109973  
C142     C      0.340680000000     0.245440000000     0.379680000000    -0.0392726  
C143     C      0.231660000000     0.244800000000     0.399910000000    -0.0090832  
C144     C      0.280310000000     0.190740000000     0.380190000000     0.086758   
C145     C      0.734850000000     0.951110000000     0.371580000000    -0.0159551  
C146     C      0.706130000000     0.909400000000     0.455430000000    -0.0418847  
C147     C      0.679600000000     0.958060000000     0.365520000000    -0.00884883 
C148     C      0.642890000000     0.882080000000     0.432000000000     0.0865408  
C149     C      0.334880000000     0.061090000000     0.626200000000    -0.00958719 
C150     C      0.369690000000     0.120950000000     0.553900000000    -0.0418319  
C151     C      0.275510000000     0.023750000000     0.601260000000    -0.013616   
C152     C      0.313420000000     0.083610000000     0.524840000000     0.0902375  
C153     C      0.084510000000     0.819300000000     0.452090000000    -0.0151181  
C154     C      0.002710000000     0.792190000000     0.387340000000    -0.0440615  
C155     C      0.090820000000     0.770710000000     0.443060000000    -0.0137784  
C156     C      0.016250000000     0.748080000000     0.375780000000     0.0908679  
C157     C      0.974460000000     0.237290000000     0.492090000000    -0.0145963  
C158     C      0.945360000000     0.227220000000     0.575570000000    -0.042225   
C159     C      0.925700000000     0.180270000000     0.485470000000    -0.00379565 
C160     C      0.905150000000     0.164690000000     0.570610000000     0.0854978  
C161     C      0.894840000000     0.956740000000     0.748590000000    -0.0129033  
C162     C      0.939410000000     0.893430000000     0.764070000000    -0.0448462  
C163     C      0.869920000000     0.933490000000     0.701000000000    -0.0118695  
C164     C      0.917000000000     0.875720000000     0.713950000000     0.0911202  
C165     C      0.106860000000     0.023810000000     0.259420000000    -0.0188624  
C166     C      0.004360000000     0.945850000000     0.259830000000    -0.0434218  
C167     C      0.086180000000     0.055620000000     0.221120000000    -0.0107321  
C168     C      0.982630000000     0.979300000000     0.226410000000     0.0954021  
C169     C      0.706730000000     0.689410000000     0.025680000000    -0.00971607 
C170     C      0.642840000000     0.729290000000     0.990860000000    -0.043638   
C171     C      0.761610000000     0.744070000000     0.018020000000    -0.0175241  
C172     C      0.699000000000     0.784480000000     0.981620000000     0.0911666  
C173     C      0.321590000000     0.225780000000     0.987210000000    -0.017321   
C174     C      0.252340000000     0.248380000000     0.932390000000    -0.0416348  
C175     C      0.269430000000     0.168530000000     0.996690000000    -0.0105251  
C176     C      0.205440000000     0.189530000000     0.938780000000     0.0889453  
C177     C      0.748780000000     0.988010000000     0.099620000000    -0.0142421  
C178     C      0.777680000000     0.048930000000     0.022340000000    -0.0402049  
C179     C      0.809230000000     0.028270000000     0.122080000000    -0.00807433 
C180     C      0.833080000000     0.089510000000     0.050240000000     0.0849016  
C181     C      0.206780000000     0.937100000000     0.883840000000    -0.0127449  
C182     C      0.183190000000     0.887430000000     0.966540000000    -0.0407943  
C183     C      0.145690000000     0.893790000000     0.865620000000    -0.00781404 
C184     C      0.124500000000     0.843960000000     0.944760000000     0.0896257  
C185     C      0.914240000000     0.688620000000     0.967290000000    -0.0156181  
C186     C      0.916640000000     0.672700000000     0.054750000000    -0.0411167  
C187     C      0.978800000000     0.732670000000     0.970630000000    -0.00466419 
C188     C      0.980320000000     0.719470000000     0.058200000000     0.088568   
C189     C      0.039820000000     0.263760000000     0.003490000000    -0.011026   
C190     C      0.985300000000     0.253880000000     0.922680000000    -0.0420685  
C191     C      0.077610000000     0.244780000000     0.983930000000    -0.010267   
C192     C      0.024290000000     0.233990000000     0.905740000000     0.0900961  
H1       H      0.024370000000     0.977320000000     0.880690000000     0.193979   
H2       H      0.910360000000     0.041340000000     0.983260000000     0.193045   
H3       H      0.889950000000     0.840550000000     0.031290000000     0.195534   
H4       H      0.100710000000     0.015330000000     0.066900000000     0.202056   
H5       H      0.841370000000     0.006360000000     0.903710000000     0.128728   
H6       H      0.760880000000     0.940410000000     0.972890000000     0.191927   
H7       H      0.839820000000     0.878360000000     0.107790000000     0.138217   
H8       H      0.902250000000     0.815530000000     0.119960000000     0.187399   
H9       H      0.114830000000     0.920490000000     0.087340000000     0.131445   
H10      H      0.208280000000     0.008140000000     0.004870000000     0.194852   
H11      H      0.148290000000     0.048750000000     0.876020000000     0.131749   
H12      H      0.050510000000     0.098010000000     0.838430000000     0.198668   
H13      H      0.958930000000     0.839640000000     0.160120000000     0.197536   
H14      H      0.221640000000     0.037740000000     0.949900000000     0.194443   
H15      H      0.985640000000     0.089950000000     0.813960000000     0.200798   
H16      H      0.740820000000     0.904170000000     0.024830000000     0.203392   
H17      H      0.866710000000     0.908000000000     0.453270000000     0.19329    
H18      H      0.069570000000     0.086860000000     0.395340000000     0.195177   
H19      H      0.016020000000     0.059890000000     0.580900000000     0.195396   
H20      H      0.077520000000     0.920710000000     0.518870000000     0.187784   
H21      H      0.989660000000     0.090870000000     0.329190000000     0.130383   
H22      H      0.053500000000     0.193250000000     0.421660000000     0.196651   
H23      H      0.163180000000     0.162550000000     0.549400000000     0.138414   
H24      H      0.082960000000     0.046470000000     0.662510000000     0.193996   
H25      H      0.048200000000     0.888010000000     0.623010000000     0.127075   
H26      H      0.009210000000     0.830210000000     0.557600000000     0.181714   
H27      H      0.864790000000     0.815860000000     0.421070000000     0.128337   
H28      H      0.870880000000     0.932050000000     0.323730000000     0.192608   
H29      H      0.145040000000     0.080540000000     0.633440000000     0.200196   
H30      H      0.964390000000     0.782950000000     0.521260000000     0.201119   
H31      H      0.888350000000     0.995780000000     0.303960000000     0.195788   
H32      H      0.102860000000     0.225380000000     0.464960000000     0.196881   
H33      H      0.913830000000     0.412700000000     0.088600000000     0.20124    
H34      H      0.869540000000     0.426650000000     0.895110000000     0.194798   
H35      H      0.027320000000     0.610510000000     0.980480000000     0.190384   
H36      H      0.086390000000     0.451790000000     0.976660000000     0.208856   
H37      H      0.762650000000     0.369970000000     0.924340000000     0.12766    
H38      H      0.818780000000     0.534210000000     0.902090000000     0.207514   
H39      H      0.026210000000     0.639420000000     0.884580000000     0.125745   
H40      H      0.134830000000     0.667980000000     0.930330000000     0.183508   
H41      H      0.205000000000     0.581070000000     0.016770000000     0.14208    
H42      H      0.134190000000     0.461050000000     0.094270000000     0.204055   
H43      H      0.994930000000     0.321690000000     0.112080000000     0.144318   
H44      H      0.771990000000     0.293970000000     0.048020000000     0.192101   
H45      H      0.194070000000     0.659160000000     0.941340000000     0.191159   
H46      H      0.119380000000     0.402840000000     0.073760000000     0.196096   
H47      H      0.732800000000     0.304650000000     0.001710000000     0.186421   
H48      H      0.820930000000     0.496930000000     0.862320000000     0.198347   
H49      H      0.897530000000     0.470490000000     0.554330000000     0.198959   
H50      H      0.935840000000     0.453510000000     0.371080000000     0.186734   
H51      H      0.098760000000     0.626600000000     0.464210000000     0.19415    
H52      H      0.069410000000     0.425440000000     0.529840000000     0.202741   
H53      H      0.829110000000     0.446720000000     0.360200000000     0.129844   
H54      H      0.939830000000     0.579860000000     0.322660000000     0.202387   
H55      H      0.141880000000     0.640620000000     0.376710000000     0.127634   
H56      H      0.230370000000     0.618570000000     0.459110000000     0.191902   
H57      H      0.175450000000     0.535360000000     0.595290000000     0.142402   
H58      H      0.060690000000     0.406760000000     0.628710000000     0.197659   
H59      H      0.850870000000     0.353390000000     0.570570000000     0.134435   
H60      H      0.760170000000     0.372380000000     0.488030000000     0.190524   
H61      H      0.248940000000     0.614360000000     0.516790000000     0.198935   
H62      H      0.002890000000     0.388940000000     0.660720000000     0.200567   
H63      H      0.750240000000     0.387900000000     0.430500000000     0.193022   
H64      H      0.952350000000     0.534550000000     0.301250000000     0.193011   
H65      H      0.460020000000     0.907470000000     0.897540000000     0.191415   
H66      H      0.415410000000     0.882330000000     0.082880000000     0.194365   
H67      H      0.620060000000     0.048720000000     0.025740000000     0.197718   
H68      H      0.419260000000     0.056240000000     0.963390000000     0.197658   
H69      H      0.417230000000     0.788870000000     0.070000000000     0.126299   
H70      H      0.501490000000     0.848780000000     0.125590000000     0.187441   
H71      H      0.612270000000     0.059550000000     0.121150000000     0.126719   
H72      H      0.627350000000     0.161950000000     0.062820000000     0.188345   
H73      H      0.552640000000     0.161130000000     0.916910000000     0.135448   
H74      H      0.452500000000     0.096520000000     0.860800000000     0.197948   
H75      H      0.347770000000     0.892910000000     0.855590000000     0.129679   
H76      H      0.338920000000     0.807990000000     0.906940000000     0.18419    
H77      H      0.628190000000     0.199390000000     0.012520000000     0.191399   
H78      H      0.379430000000     0.057300000000     0.853780000000     0.198415   
H79      H      0.306580000000     0.767620000000     0.954680000000     0.196251   
H80      H      0.572830000000     0.887550000000     0.141150000000     0.200904   
H81      H      0.374210000000     0.939120000000     0.438820000000     0.194905   
H82      H      0.480890000000     0.994190000000     0.613370000000     0.199857   
H83      H      0.581990000000     0.929480000000     0.498680000000     0.193347   
H84      H      0.588730000000     0.119330000000     0.448790000000     0.201787   
H85      H      0.364670000000     0.869280000000     0.610750000000     0.139262   
H86      H      0.460120000000     0.847890000000     0.641340000000     0.197414   
H87      H      0.654330000000     0.954770000000     0.578870000000     0.126287   
H88      H      0.717960000000     0.019120000000     0.497660000000     0.195347   
H89      H      0.622780000000     0.095710000000     0.372380000000     0.13453    
H90      H      0.532480000000     0.117030000000     0.337510000000     0.188804   
H91      H      0.380060000000     0.074980000000     0.427880000000     0.143145   
H92      H      0.300990000000     0.969910000000     0.479420000000     0.200907   
H93      H      0.731510000000     0.045990000000     0.442020000000     0.203221   
H94      H      0.463630000000     0.107760000000     0.330210000000     0.199013   
H95      H      0.271990000000     0.936930000000     0.530560000000     0.203647   
H96      H      0.488670000000     0.901090000000     0.673820000000     0.197481   
H97      H      0.361800000000     0.447930000000     0.039960000000     0.194743   
H98      H      0.436380000000     0.430620000000     0.879240000000     0.201895   
H99      H      0.577870000000     0.607300000000     0.968840000000     0.186853   
H100     H      0.549660000000     0.413710000000     0.052260000000     0.204054   
H101     H      0.316920000000     0.416510000000     0.851050000000     0.137054   
H102     H      0.442650000000     0.559260000000     0.821940000000     0.202582   
H103     H      0.644490000000     0.614540000000     0.906430000000     0.126763   
H104     H      0.725110000000     0.599740000000     0.014440000000     0.194458   
H105     H      0.610400000000     0.509350000000     0.126590000000     0.144453   
H106     H      0.520550000000     0.387950000000     0.144450000000     0.198712   
H107     H      0.322210000000     0.330110000000     0.063990000000     0.129691   
H108     H      0.249420000000     0.351160000000     0.985240000000     0.19039    
H109     H      0.717590000000     0.582920000000     0.072400000000     0.201251   
H110     H      0.478690000000     0.403180000000     0.173020000000     0.200595   
H111     H      0.237810000000     0.351940000000     0.926460000000     0.192294   
H112     H      0.508280000000     0.583240000000     0.799220000000     0.200991   
H113     H      0.442980000000     0.429250000000     0.582050000000     0.201816   
H114     H      0.400590000000     0.456480000000     0.391200000000     0.195991   
H115     H      0.555010000000     0.634570000000     0.483190000000     0.193486   
H116     H      0.617260000000     0.480980000000     0.469850000000     0.199027   
H117     H      0.277810000000     0.388220000000     0.433710000000     0.137701   
H118     H      0.359700000000     0.576540000000     0.391630000000     0.202085   
H119     H      0.560450000000     0.670360000000     0.391600000000     0.123961   
H120     H      0.677650000000     0.689430000000     0.416450000000     0.191114   
H121     H      0.709680000000     0.585780000000     0.544610000000     0.143926   
H122     H      0.651330000000     0.427040000000     0.564320000000     0.199818   
H123     H      0.451720000000     0.331700000000     0.571690000000     0.128008   
H124     H      0.334420000000     0.313000000000     0.548330000000     0.188645   
H125     H      0.729990000000     0.690290000000     0.456430000000     0.203784   
H126     H      0.663290000000     0.480660000000     0.591340000000     0.201044   
H127     H      0.278430000000     0.313520000000     0.513910000000     0.193854   
H128     H      0.348460000000     0.521490000000     0.367330000000     0.198663   
H129     H      0.526930000000     0.374060000000     0.756370000000     0.0385115  
H130     H      0.595930000000     0.441850000000     0.703320000000     0.0421219  
H131     H      0.442190000000     0.393500000000     0.738030000000     0.0208871  
H132     H      0.459220000000     0.484380000000     0.703250000000     0.0513664  
H133     H      0.587110000000     0.416810000000     0.794500000000     0.0343971  
H134     H      0.614490000000     0.495320000000     0.739700000000     0.0387065  
H135     H      0.519630000000     0.516280000000     0.745970000000     0.0532601  
H136     H      0.398090000000     0.394650000000     0.807930000000     0.0795861  
H137     H      0.428650000000     0.464680000000     0.797710000000     0.0906295  
H138     H      0.387240000000     0.562280000000     0.199350000000     0.0348479  
H139     H      0.471190000000     0.598950000000     0.253080000000     0.0445349  
H140     H      0.346190000000     0.466260000000     0.225760000000     0.0182098  
H141     H      0.407920000000     0.429080000000     0.269080000000     0.0481526  
H142     H      0.447840000000     0.593970000000     0.161900000000     0.0413523  
H143     H      0.513680000000     0.581740000000     0.220610000000     0.0406716  
H144     H      0.461990000000     0.462250000000     0.224730000000     0.0475382  
H145     H      0.317810000000     0.408790000000     0.157700000000     0.0917391  
H146     H      0.369420000000     0.389690000000     0.183480000000     0.094357   
H147     H      0.416140000000     0.728680000000     0.471110000000     0.0405059  
H148     H      0.521830000000     0.791140000000     0.452400000000     0.0478335  
H149     H      0.404170000000     0.705740000000     0.556630000000     0.0171419  
H150     H      0.496960000000     0.759700000000     0.601760000000     0.0466286  
H151     H      0.444270000000     0.698750000000     0.438180000000     0.0405611  
H152     H      0.542570000000     0.744800000000     0.485080000000     0.034385   
H153     H      0.532490000000     0.729200000000     0.576280000000     0.0494101  
H154     H      0.384170000000     0.613440000000     0.589170000000     0.0968945  
H155     H      0.455850000000     0.644340000000     0.614440000000     0.09834    
H156     H      0.569490000000     0.292750000000     0.519600000000     0.0475011  
H157     H      0.629890000000     0.254590000000     0.508990000000     0.0453503  
H158     H      0.523170000000     0.311180000000     0.381920000000     0.026144   
H159     H      0.498610000000     0.224760000000     0.397420000000     0.0451808  
H160     H      0.640130000000     0.348080000000     0.502030000000     0.0238577  
H161     H      0.654650000000     0.293440000000     0.454310000000     0.0265209  
H162     H      0.568450000000     0.244050000000     0.374950000000     0.0429135  
H163     H      0.613810000000     0.381450000000     0.363210000000     0.0920492  
H164     H      0.652680000000     0.353310000000     0.395140000000     0.0788545  
H165     H      0.547820000000     0.963040000000     0.750770000000     0.0327273  
H166     H      0.643820000000     0.005810000000     0.715940000000     0.0452518  
H167     H      0.507490000000     0.043260000000     0.735040000000     0.0193561  
H168     H      0.585950000000     0.124710000000     0.695110000000     0.0532487  
H169     H      0.604820000000     0.978630000000     0.796940000000     0.0426233  
H170     H      0.673230000000     0.060080000000     0.753270000000     0.0398244  
H171     H      0.639500000000     0.128620000000     0.741340000000     0.0477694  
H172     H      0.499950000000     0.091230000000     0.789570000000     0.0918252  
H173     H      0.573240000000     0.117900000000     0.810810000000     0.0881659  
H174     H      0.329040000000     0.921910000000     0.223390000000     0.0379822  
H175     H      0.381080000000     0.990650000000     0.278550000000     0.0384749  
H176     H      0.360550000000     0.852290000000     0.237970000000     0.0190099  
H177     H      0.431700000000     0.868590000000     0.302590000000     0.0539407  
H178     H      0.374510000000     0.985560000000     0.191430000000     0.0394653  
H179     H      0.451220000000     0.013680000000     0.254100000000     0.043034   
H180     H      0.487480000000     0.928750000000     0.272490000000     0.0527008  
H181     H      0.410110000000     0.839350000000     0.178090000000     0.0777145  
H182     H      0.477840000000     0.877380000000     0.207890000000     0.0945199  
H183     H      0.448580000000     0.708610000000     0.949930000000     0.0542748  
H184     H      0.416840000000     0.761620000000     0.890050000000     0.0358721  
H185     H      0.593880000000     0.740930000000     0.889750000000     0.0130397  
H186     H      0.590470000000     0.807860000000     0.930250000000     0.0497664  
H187     H      0.411230000000     0.672060000000     0.898410000000     0.0346001  
H188     H      0.454880000000     0.755460000000     0.845940000000     0.0405417  
H189     H      0.595550000000     0.835240000000     0.869700000000     0.0448913  
H190     H      0.579230000000     0.772060000000     0.811850000000     0.0802623  
H191     H      0.531700000000     0.704460000000     0.820020000000     0.091753   
H192     H      0.473360000000     0.200160000000     0.994900000000     0.0417088  
H193     H      0.546890000000     0.280220000000     0.036190000000     0.0380993  
H194     H      0.365270000000     0.148000000000     0.035590000000     0.0134676  
H195     H      0.373560000000     0.214360000000     0.085190000000     0.0462093  
H196     H      0.530780000000     0.191010000000     0.027380000000     0.0339712  
H197     H      0.531540000000     0.240850000000     0.091820000000     0.0345256  
H198     H      0.427670000000     0.207470000000     0.125360000000     0.0465599  
H199     H      0.328890000000     0.073150000000     0.088270000000     0.0921653  
H200     H      0.385290000000     0.102180000000     0.130840000000     0.0900616  
H201     H      0.860200000000     0.248310000000     0.473610000000     0.0456979  
H202     H      0.790530000000     0.160380000000     0.493060000000     0.0379782  
H203     H      0.744600000000     0.295630000000     0.401460000000     0.0108834  
H204     H      0.736630000000     0.266750000000     0.486080000000     0.0452467  
H205     H      0.846950000000     0.221520000000     0.416960000000     0.0355045  
H206     H      0.753280000000     0.151670000000     0.436190000000     0.0445537  
H207     H      0.671840000000     0.220680000000     0.452750000000     0.0407706  
H208     H      0.678780000000     0.213660000000     0.369870000000     0.0766563  
H209     H      0.745560000000     0.237520000000     0.346990000000     0.0837625  
H210     H      0.183170000000     0.750800000000     0.472630000000     0.0290962  
H211     H      0.142760000000     0.750830000000     0.548610000000     0.0401863  
H212     H      0.241180000000     0.699540000000     0.490180000000     0.0185197  
H213     H      0.252080000000     0.676410000000     0.579340000000     0.0438669  
H214     H      0.215710000000     0.819050000000     0.488400000000     0.032835   
H215     H      0.215700000000     0.787010000000     0.573990000000     0.0430896  
H216     H      0.279660000000     0.745800000000     0.588040000000     0.0410847  
H217     H      0.341480000000     0.741200000000     0.477900000000     0.0940278  
H218     H      0.361910000000     0.763810000000     0.534260000000     0.0912538  
H219     H      0.745850000000     0.615460000000     0.436080000000     0.0342639  
H220     H      0.839630000000     0.629250000000     0.459080000000     0.041858   
H221     H      0.670880000000     0.456410000000     0.415290000000     0.0114883  
H222     H      0.717090000000     0.499230000000     0.488220000000     0.0450951  
H223     H      0.771960000000     0.623320000000     0.379340000000     0.0315182  
H224     H      0.845250000000     0.601420000000     0.408480000000     0.034819   
H225     H      0.742970000000     0.457240000000     0.472670000000     0.0475842  
H226     H      0.718380000000     0.471570000000     0.348350000000     0.0830677  
H227     H      0.782350000000     0.525040000000     0.366710000000     0.0979064  
H228     H      0.232210000000     0.523920000000     0.526620000000     0.0287947  
H229     H      0.331260000000     0.549950000000     0.521340000000     0.0417635  
H230     H      0.163530000000     0.412420000000     0.551260000000     0.0118021  
H231     H      0.235740000000     0.387650000000     0.573640000000     0.0417001  
H232     H      0.250200000000     0.540130000000     0.465160000000     0.0348209  
H233     H      0.316660000000     0.507040000000     0.475190000000     0.0499095  
H234     H      0.253100000000     0.389220000000     0.515010000000     0.0401212  
H235     H      0.101750000000     0.343040000000     0.507110000000     0.0935133  
H236     H      0.152550000000     0.359090000000     0.464890000000     0.0917447  
H237     H      0.926830000000     0.438120000000     0.716570000000     0.0397765  
H238     H      0.036730000000     0.486850000000     0.700300000000     0.0395661  
H239     H      0.883790000000     0.501330000000     0.711870000000     0.0171573  
H240     H      0.953790000000     0.587040000000     0.672960000000     0.0510791  
H241     H      0.974630000000     0.436330000000     0.765370000000     0.0406226  
H242     H      0.049110000000     0.533610000000     0.741670000000     0.0405589  
H243     H      0.007830000000     0.599950000000     0.721310000000     0.0471297  
H244     H      0.866220000000     0.532980000000     0.778470000000     0.0899423  
H245     H      0.937430000000     0.588660000000     0.778100000000     0.103485   
H246     H      0.137730000000     0.537030000000     0.237640000000     0.0357857  
H247     H      0.062430000000     0.557700000000     0.197130000000     0.0401727  
H248     H      0.110170000000     0.444950000000     0.248310000000     0.0183614  
H249     H      0.015150000000     0.389600000000     0.209390000000     0.0510441  
H250     H      0.116630000000     0.568850000000     0.275240000000     0.0461634  
H251     H      0.011240000000     0.518900000000     0.242450000000     0.033366   
H252     H      0.977080000000     0.404500000000     0.248820000000     0.0420124  
H253     H      0.093150000000     0.397740000000     0.328190000000     0.0955195  
H254     H      0.017950000000     0.365500000000     0.312090000000     0.0919721  
H255     H      0.840310000000     0.223260000000     0.861760000000     0.0358277  
H256     H      0.775120000000     0.134170000000     0.895160000000     0.0403658  
H257     H      0.834780000000     0.176660000000     0.964810000000     0.0228989  
H258     H      0.748040000000     0.153500000000     0.010070000000     0.039282   
H259     H      0.787810000000     0.246370000000     0.864120000000     0.032838   
H260     H      0.724490000000     0.152310000000     0.861160000000     0.0365664  
H261     H      0.746010000000     0.213360000000     0.982380000000     0.0510462  
H262     H      0.904020000000     0.257550000000     0.007390000000     0.103102   
H263     H      0.842570000000     0.251570000000     0.031750000000     0.0931889  
H264     H      0.229760000000     0.693680000000     0.048630000000     0.040091   
H265     H      0.305850000000     0.749020000000     0.104710000000     0.0301194  
H266     H      0.101750000000     0.719790000000     0.083190000000     0.0126515  
H267     H      0.180700000000     0.793480000000     0.046770000000     0.0370008  
H268     H      0.218150000000     0.656070000000     0.105890000000     0.0318174  
H269     H      0.253400000000     0.738970000000     0.145110000000     0.0419049  
H270     H      0.196080000000     0.812990000000     0.106030000000     0.0457464  
H271     H      0.129340000000     0.743190000000     0.161550000000     0.0815869  
H272     H      0.110370000000     0.676930000000     0.160560000000     0.0917628  
H273     H      0.678660000000     0.387390000000     0.102500000000     0.0314485  
H274     H      0.644130000000     0.359700000000     0.023100000000     0.0379044  
H275     H      0.718810000000     0.481310000000     0.095290000000     0.0226491  
H276     H      0.747860000000     0.533910000000     0.013680000000     0.0491826  
H277     H      0.717440000000     0.354780000000     0.088600000000     0.0370387  
H278     H      0.717100000000     0.386740000000     0.004610000000     0.0423296  
H279     H      0.785540000000     0.498630000000     0.006350000000     0.0523256  
H280     H      0.822830000000     0.529590000000     0.130940000000     0.0935424  
H281     H      0.840170000000     0.559490000000     0.074140000000     0.104612   
H282     H      0.225470000000     0.602240000000     0.886300000000     0.033966   
H283     H      0.267300000000     0.575270000000     0.957080000000     0.0440024  
H284     H      0.161220000000     0.435190000000     0.909840000000     0.0217755  
H285     H      0.251320000000     0.440470000000     0.900920000000     0.0429718  
H286     H      0.254880000000     0.577250000000     0.848780000000     0.0312579  
H287     H      0.323460000000     0.602890000000     0.915350000000     0.0376835  
H288     H      0.276150000000     0.498290000000     0.859290000000     0.0487968  
H289     H      0.119490000000     0.425660000000     0.832470000000     0.0936554  
H290     H      0.183490000000     0.475020000000     0.808400000000     0.0854789  
H291     H      0.728850000000     0.842200000000     0.564270000000     0.0409565  
H292     H      0.654560000000     0.758670000000     0.537370000000     0.0328825  
H293     H      0.773060000000     0.729630000000     0.543430000000     0.0251775  
H294     H      0.724000000000     0.666850000000     0.611530000000     0.0418779  
H295     H      0.739390000000     0.812870000000     0.621360000000     0.0391123  
H296     H      0.637350000000     0.756330000000     0.597110000000     0.0354939  
H297     H      0.734360000000     0.721000000000     0.643760000000     0.046592   
H298     H      0.865470000000     0.762530000000     0.580360000000     0.0915288  
H299     H      0.847300000000     0.782620000000     0.627830000000     0.0874948  
H300     H      0.242410000000     0.259960000000     0.435640000000     0.0395011  
H301     H      0.274340000000     0.326590000000     0.366400000000     0.0266105  
H302     H      0.290160000000     0.160160000000     0.400680000000     0.0187416  
H303     H      0.367490000000     0.243610000000     0.412320000000     0.0436042  
H304     H      0.186910000000     0.238630000000     0.387690000000     0.0318307  
H305     H      0.261240000000     0.276490000000     0.328730000000     0.0327702  
H306     H      0.365940000000     0.248970000000     0.349340000000     0.0483024  
H307     H      0.230390000000     0.131920000000     0.334030000000     0.0914329  
H308     H      0.241010000000     0.194630000000     0.313070000000     0.0866523  
H309     H      0.694320000000     0.000960000000     0.370950000000     0.0374647  
H310     H      0.770690000000     0.987840000000     0.353610000000     0.0376884  
H311     H      0.613150000000     0.868290000000     0.461640000000     0.0132635  
H312     H      0.707710000000     0.934170000000     0.483160000000     0.0401325  
H313     H      0.661000000000     0.951340000000     0.328550000000     0.0328157  
H314     H      0.727810000000     0.916230000000     0.353120000000     0.0319698  
H315     H      0.715620000000     0.877210000000     0.473440000000     0.0450233  
H316     H      0.589810000000     0.819950000000     0.389290000000     0.089865   
H317     H      0.663300000000     0.839940000000     0.388350000000     0.0845202  
H318     H      0.275420000000     0.986160000000     0.594460000000     0.041793   
H319     H      0.346390000000     0.037530000000     0.655440000000     0.0383847  
H320     H      0.323520000000     0.056870000000     0.506940000000     0.0187215  
H321     H      0.407510000000     0.143290000000     0.530640000000     0.053516   
H322     H      0.240900000000     0.011840000000     0.626610000000     0.0441329  
H323     H      0.330440000000     0.092280000000     0.642580000000     0.0342371  
H324     H      0.363060000000     0.151840000000     0.568660000000     0.0465588  
H325     H      0.279650000000     0.097390000000     0.458860000000     0.100239   
H326     H      0.276150000000     0.133640000000     0.501980000000     0.0928395  
H327     H      0.129040000000     0.784800000000     0.420920000000     0.0340011  
H328     H      0.129530000000     0.853640000000     0.458760000000     0.0349894  
H329     H      0.050950000000     0.766060000000     0.349550000000     0.0210976  
H330     H      0.991670000000     0.810380000000     0.353600000000     0.0498034  
H331     H      0.100050000000     0.754090000000     0.477930000000     0.0377179  
H332     H      0.060510000000     0.808900000000     0.484890000000     0.0299938  
H333     H      0.963380000000     0.772990000000     0.409070000000     0.0539521  
H334     H      0.972390000000     0.681490000000     0.335750000000     0.0901925  
H335     H      0.932240000000     0.680640000000     0.380500000000     0.0877635  
H336     H      0.883400000000     0.179300000000     0.475530000000     0.031045   
H337     H      0.979130000000     0.260150000000     0.456900000000     0.0440074  
H338     H      0.858970000000     0.157130000000     0.563860000000     0.0211446  
H339     H      0.922360000000     0.240690000000     0.596710000000     0.0515997  
H340     H      0.934800000000     0.164230000000     0.455600000000     0.0368183  
H341     H      0.016980000000     0.237510000000     0.502230000000     0.0433785  
H342     H      0.987360000000     0.234480000000     0.595490000000     0.0445406  
H343     H      0.875840000000     0.093240000000     0.613920000000     0.0941704  
H344     H      0.950100000000     0.137630000000     0.622060000000     0.0828804  
H345     H      0.825940000000     0.896860000000     0.705030000000     0.0386845  
H346     H      0.861160000000     0.963060000000     0.763400000000     0.0395859  
H347     H      0.872290000000     0.839710000000     0.716690000000     0.0185486  
H348     H      0.932610000000     0.856760000000     0.787590000000     0.0555911  
H349     H      0.863120000000     0.964100000000     0.676950000000     0.0418033  
H350     H      0.935110000000     0.996740000000     0.743190000000     0.0366802  
H351     H      0.987620000000     0.922230000000     0.764390000000     0.042223   
H352     H      0.939580000000     0.845320000000     0.661530000000     0.0874535  
H353     H      0.999120000000     0.886410000000     0.698080000000     0.0959085  
H354     H      0.077710000000     0.083860000000     0.238380000000     0.0317134  
H355     H      0.143620000000     0.052640000000     0.282120000000     0.0378974  
H356     H      0.972610000000     0.003380000000     0.248060000000     0.019323   
H357     H      0.968950000000     0.915610000000     0.282960000000     0.0502426  
H358     H      0.121940000000     0.080410000000     0.196410000000     0.0349108  
H359     H      0.124150000000     0.002150000000     0.241850000000     0.0417731  
H360     H      0.016900000000     0.922740000000     0.239220000000     0.0477866  
H361     H      0.916860000000     0.967970000000     0.173250000000     0.0869634  
H362     H      0.927280000000     0.911930000000     0.187500000000     0.0896001  
H363     H      0.774460000000     0.764670000000     0.051200000000     0.0360063  
H364     H      0.715740000000     0.670210000000     0.059580000000     0.036446   
H365     H      0.706150000000     0.809350000000     0.011230000000     0.0159058  
H366     H      0.607940000000     0.737250000000     0.000890000000     0.0542731  
H367     H      0.797800000000     0.736260000000     0.010990000000     0.032109   
H368     H      0.701110000000     0.665470000000     0.995860000000     0.0178054  
H369     H      0.627290000000     0.708830000000     0.957540000000     0.0413845  
H370     H      0.707440000000     0.852850000000     0.938310000000     0.0926987  
H371     H      0.698870000000     0.800190000000     0.907860000000     0.0904557  
H372     H      0.272010000000     0.140640000000     0.974180000000     0.0353845  
H373     H      0.361480000000     0.221900000000     0.984300000000     0.0458407  
H374     H      0.211800000000     0.167030000000     0.912790000000     0.0219771  
H375     H      0.248440000000     0.263700000000     0.895040000000     0.0462971  
H376     H      0.274310000000     0.154460000000     0.034240000000     0.0356147  
H377     H      0.329050000000     0.248750000000     0.018280000000     0.0416898  
H378     H      0.243250000000     0.270840000000     0.956260000000     0.0448587  
H379     H      0.115770000000     0.147470000000     0.921590000000     0.104063   
H380     H      0.138850000000     0.202980000000     0.954100000000     0.102794   
H381     H      0.803290000000     0.056890000000     0.141130000000     0.0339166  
H382     H      0.715530000000     0.975180000000     0.126390000000     0.0379846  
H383     H      0.820330000000     0.114580000000     0.068070000000     0.0214419  
H384     H      0.761210000000     0.072620000000     0.997550000000     0.0481828  
H385     H      0.825310000000     0.006000000000     0.149100000000     0.0277542  
H386     H      0.750130000000     0.951120000000     0.092740000000     0.0398792  
H387     H      0.789370000000     0.026070000000     0.000890000000     0.0441585  
H388     H      0.917930000000     0.150850000000     0.038800000000     0.0977444  
H389     H      0.888190000000     0.106440000000     0.995230000000     0.0775763  
H390     H      0.128080000000     0.912430000000     0.836220000000     0.026166   
H391     H      0.205330000000     0.975000000000     0.886680000000     0.0321902  
H392     H      0.091680000000     0.827660000000     0.972400000000     0.0173531  
H393     H      0.175020000000     0.914400000000     0.985790000000     0.0491437  
H394     H      0.150340000000     0.862170000000     0.850320000000     0.0380226  
H395     H      0.238430000000     0.946200000000     0.856580000000     0.0373674  
H396     H      0.200960000000     0.866400000000     0.993190000000     0.0483582  
H397     H      0.129420000000     0.773330000000     0.961480000000     0.0739054  
H398     H      0.168820000000     0.811950000000     0.914230000000     0.0868479  
H399     H      0.008140000000     0.714550000000     0.970590000000     0.0324408  
H400     H      0.903180000000     0.669990000000     0.933140000000     0.0457252  
H401     H      0.010020000000     0.702010000000     0.057490000000     0.0233712  
H402     H      0.909620000000     0.642360000000     0.085260000000     0.047896   
H403     H      0.989480000000     0.762320000000     0.939060000000     0.0546832  
H404     H      0.884640000000     0.706220000000     0.968460000000     0.0452693  
H405     H      0.885130000000     0.688040000000     0.056810000000     0.0366059  
H406     H      0.036550000000     0.776560000000     0.104700000000     0.0929969  
H407     H      0.961940000000     0.754610000000     0.109900000000     0.0896849  
H408     H      0.116530000000     0.280480000000     0.968040000000     0.0283969  
H409     H      0.068520000000     0.294690000000     0.028480000000     0.0314487  
H410     H      0.064440000000     0.270090000000     0.891810000000     0.0178847  
H411     H      0.975340000000     0.277310000000     0.892400000000     0.0589708  
H412     H      0.095750000000     0.226490000000     0.013140000000     0.0408559  
H413     H      0.003850000000     0.229550000000     0.023300000000     0.0401096  
H414     H      0.942610000000     0.218630000000     0.933320000000     0.0474988  
H415     H      0.021440000000     0.187820000000     0.853460000000     0.0945099  
H416     H      0.952680000000     0.167330000000     0.875060000000     0.0952127  
N1       N      0.509200000000     0.424470000000     0.792230000000    -0.177993   
N2       N      0.533940000000     0.472000000000     0.699230000000    -0.16079    
N3       N      0.416160000000     0.428350000000     0.783370000000    -0.199811   
N4       N      0.404140000000     0.506830000000     0.170260000000    -0.178485   
N5       N      0.453060000000     0.516130000000     0.264090000000    -0.161118   
N6       N      0.343790000000     0.407630000000     0.187970000000    -0.196794   
N7       N      0.436720000000     0.672560000000     0.513160000000    -0.182024   
N8       N      0.511590000000     0.780700000000     0.527720000000    -0.16496    
N9       N      0.420570000000     0.649640000000     0.599000000000    -0.198907   
N10      N      0.569400000000     0.328480000000     0.449830000000    -0.18122    
N11      N      0.565650000000     0.231580000000     0.449370000000    -0.163383   
N12      N      0.613810000000     0.345120000000     0.374930000000    -0.197273   
N13      N      0.562190000000     0.028170000000     0.788870000000    -0.176498   
N14      N      0.611510000000     0.062840000000     0.700050000000    -0.162165   
N15      N      0.543560000000     0.105730000000     0.781330000000    -0.197585   
N16      N      0.405320000000     0.927320000000     0.198110000000    -0.177465   
N17      N      0.419330000000     0.938500000000     0.295770000000    -0.161655   
N18      N      0.432130000000     0.854240000000     0.210210000000    -0.19744    
N19      N      0.503210000000     0.700310000000     0.905190000000    -0.172718   
N20      N      0.512520000000     0.804800000000     0.899230000000    -0.158737   
N21      N      0.541880000000     0.742670000000     0.829180000000    -0.192862   
N22      N      0.444820000000     0.146780000000     0.056930000000    -0.177799   
N23      N      0.460960000000     0.252960000000     0.061150000000    -0.160878   
N24      N      0.358290000000     0.108790000000     0.103980000000    -0.197888   
N25      N      0.812600000000     0.273950000000     0.422130000000    -0.178238   
N26      N      0.728680000000     0.189640000000     0.482090000000    -0.161219   
N27      N      0.722170000000     0.221120000000     0.377680000000    -0.185082   
N28      N      0.271490000000     0.781770000000     0.497020000000    -0.18257    
N29      N      0.189790000000     0.706140000000     0.562080000000    -0.162535   
N30      N      0.330000000000     0.734500000000     0.512900000000    -0.201641   
N31      N      0.708550000000     0.542770000000     0.401150000000    -0.185208   
N32      N      0.803940000000     0.543780000000     0.465120000000    -0.158658   
N33      N      0.746890000000     0.487890000000     0.377700000000    -0.194942   
N34      N      0.192260000000     0.456610000000     0.485530000000    -0.180334   
N35      N      0.294490000000     0.465730000000     0.543110000000    -0.165685   
N36      N      0.145970000000     0.357800000000     0.500590000000    -0.200119   
N37      N      0.940780000000     0.492870000000     0.767020000000    -0.178981   
N38      N      0.995480000000     0.537250000000     0.681370000000    -0.163103   
N39      N      0.902840000000     0.558860000000     0.758780000000    -0.197305   
N40      N      0.081600000000     0.482350000000     0.290960000000    -0.179646   
N41      N      0.027300000000     0.471070000000     0.200900000000    -0.166518   
N42      N      0.060820000000     0.387020000000     0.300430000000    -0.198133   
N43      N      0.837460000000     0.246920000000     0.928580000000    -0.17761    
N44      N      0.725420000000     0.152990000000     0.935970000000    -0.162179   
N45      N      0.859610000000     0.232660000000     0.014140000000    -0.19695    
N46      N      0.155140000000     0.682440000000     0.082670000000    -0.175608   
N47      N      0.252770000000     0.787640000000     0.082860000000    -0.158792   
N48      N      0.141740000000     0.716740000000     0.150440000000    -0.19176    
N49      N      0.768500000000     0.441900000000     0.088080000000    -0.179559   
N50      N      0.693490000000     0.446950000000     0.010970000000    -0.162947   
N51      N      0.807030000000     0.538460000000     0.097650000000    -0.203612   
N52      N      0.180280000000     0.514940000000     0.883180000000    -0.179868   
N53      N      0.281710000000     0.517650000000     0.929330000000    -0.160426   
N54      N      0.165520000000     0.444430000000     0.835720000000    -0.198695   
N55      N      0.779300000000     0.800530000000     0.566720000000    -0.174916   
N56      N      0.671120000000     0.704440000000     0.586760000000    -0.162736   
N57      N      0.832720000000     0.753750000000     0.603240000000    -0.19785    
N58      N      0.232700000000     0.192990000000     0.402660000000    -0.175161   
N59      N      0.334010000000     0.294230000000     0.377870000000    -0.161511   
N60      N      0.260620000000     0.173360000000     0.332310000000    -0.195952   
N61      N      0.633290000000     0.921220000000     0.398270000000    -0.180208   
N62      N      0.752040000000     0.944420000000     0.421860000000    -0.161672   
N63      N      0.629860000000     0.833690000000     0.409280000000    -0.197659   
N64      N      0.263130000000     0.048940000000     0.555770000000    -0.175517   
N65      N      0.381600000000     0.088100000000     0.592540000000    -0.162528   
N66      N      0.300260000000     0.118170000000     0.488890000000    -0.199937   
N67      N      0.038210000000     0.728720000000     0.419510000000    -0.176121   
N68      N      0.052510000000     0.835080000000     0.413390000000    -0.162565   
N69      N      0.962410000000     0.704640000000     0.354910000000    -0.198536   
N70      N      0.920410000000     0.147230000000     0.529910000000    -0.179521   
N71      N      0.960110000000     0.259880000000     0.529430000000    -0.161102   
N72      N      0.908090000000     0.133910000000     0.615010000000    -0.197657   
N73      N      0.910900000000     0.919120000000     0.683500000000    -0.179196   
N74      N      0.909840000000     0.920330000000     0.781540000000    -0.163117   
N75      N      0.954330000000     0.857800000000     0.695590000000    -0.19757    
N76      N      0.031270000000     0.017580000000     0.196100000000    -0.181545   
N77      N      0.056560000000     0.983850000000     0.287180000000    -0.161711   
N78      N      0.927450000000     0.944980000000     0.200020000000    -0.200404   
N79      N      0.752240000000     0.778790000000     0.979460000000    -0.180553   
N80      N      0.652010000000     0.692240000000     0.027330000000    -0.165025   
N81      N      0.687720000000     0.810930000000     0.937350000000    -0.200633   
N82      N      0.211820000000     0.166880000000     0.987260000000    -0.180188   
N83      N      0.312230000000     0.256400000000     0.944540000000    -0.164389   
N84      N      0.148240000000     0.186830000000     0.927670000000    -0.203257   
N85      N      0.853030000000     0.059280000000     0.086350000000    -0.178141   
N86      N      0.731590000000     0.010530000000     0.054770000000    -0.159533   
N87      N      0.879790000000     0.126680000000     0.018810000000    -0.197057   
N88      N      0.104450000000     0.868750000000     0.903690000000    -0.175173   
N89      N      0.226440000000     0.920330000000     0.930480000000    -0.160671   
N90      N      0.129970000000     0.798570000000     0.931340000000    -0.192408   
N91      N      0.988890000000     0.757550000000     0.015600000000    -0.18359    
N92      N      0.906640000000     0.649980000000     0.008650000000    -0.168432   
N93      N      0.993490000000     0.744190000000     0.103010000000    -0.197099   
N94      N      0.042120000000     0.207600000000     0.947270000000    -0.180991   
N95      N      0.014610000000     0.285900000000     0.964040000000    -0.167825   
N96      N      0.994070000000     0.199680000000     0.866640000000    -0.197617   
O1       O      0.164080000000     0.078500000000     0.012570000000    -0.391758   
O2       O      0.117340000000     0.125890000000     0.014510000000    -0.350167   
O3       O      0.924760000000     0.973100000000     0.840500000000    -0.376864   
O4       O      0.923390000000     0.892220000000     0.857880000000    -0.381522   
O5       O      0.999770000000     0.121630000000     0.923400000000    -0.374856   
O6       O      0.025150000000     0.136520000000     0.000690000000    -0.377605   
O7       O      0.106980000000     0.940210000000     0.931210000000    -0.389933   
O8       O      0.018470000000     0.868890000000     0.911680000000    -0.357871   
O9       O      0.133110000000     0.067040000000     0.893250000000    -0.371118   
O10      O      0.194860000000     0.019770000000     0.975070000000    -0.512605   
O11      O      0.008350000000     0.082450000000     0.839920000000    -0.524885   
O12      O      0.873260000000     0.036440000000     0.885420000000    -0.356444   
O13      O      0.046220000000     0.058510000000     0.959600000000    -0.493786   
O14      O      0.012430000000     0.976930000000     0.911610000000    -0.631296   
O15      O      0.998870000000     0.830710000000     0.049820000000    -0.378838   
O16      O      0.957900000000     0.812890000000     0.975620000000    -0.378347   
O17      O      0.853640000000     0.988990000000     0.059320000000    -0.388051   
O18      O      0.940360000000     0.067210000000     0.067040000000    -0.365838   
O19      O      0.808560000000     0.867990000000     0.955180000000    -0.368536   
O20      O      0.845540000000     0.813310000000     0.952590000000    -0.369326   
O21      O      0.011160000000     0.961370000000     0.138960000000    -0.376093   
O22      O      0.048000000000     0.051840000000     0.119700000000    -0.386579   
O23      O      0.942320000000     0.841900000000     0.128520000000    -0.529855   
O24      O      0.090290000000     0.917830000000     0.112680000000    -0.355979   
O25      O      0.819280000000     0.860360000000     0.078700000000    -0.371285   
O26      O      0.770350000000     0.924130000000     0.001900000000    -0.519702   
O27      O      0.915230000000     0.877810000000     0.020240000000    -0.62829    
O28      O      0.950820000000     0.963430000000     0.066490000000    -0.498534   
O29      O      0.031870000000     0.919440000000     0.994530000000    -0.499259   
O30      O      0.929640000000     0.019640000000     0.985240000000    -0.63199    
O31      O      0.068350000000     0.002220000000     0.043350000000    -0.624786   
O32      O      0.893520000000     0.936380000000     0.936630000000    -0.484273   
O33      O      0.999560000000     0.878380000000     0.415930000000    -0.351456   
O34      O      0.096790000000     0.923790000000     0.432250000000    -0.368651   
O35      O      0.847740000000     0.976550000000     0.404540000000    -0.374123   
O36      O      0.824640000000     0.964300000000     0.481060000000    -0.367982   
O37      O      0.998430000000     0.981010000000     0.342040000000    -0.364902   
O38      O      0.096230000000     0.011910000000     0.360410000000    -0.370855   
O39      O      0.863010000000     0.835270000000     0.525790000000    -0.371449   
O40      O      0.835370000000     0.892400000000     0.549480000000    -0.358533   
O41      O      0.883990000000     0.802360000000     0.446940000000    -0.348323   
O42      O      0.982330000000     0.819680000000     0.530060000000    -0.537365   
O43      O      0.891610000000     0.970300000000     0.328200000000    -0.515047   
O44      O      0.972480000000     0.089540000000     0.358870000000    -0.363966   
O45      O      0.999550000000     0.949960000000     0.422260000000    -0.462594   
O46      O      0.906910000000     0.933890000000     0.461800000000    -0.628951   
O47      O      0.985790000000     0.944390000000     0.634210000000    -0.375928   
O48      O      0.912630000000     0.965070000000     0.612090000000    -0.377875   
O49      O      0.150770000000     0.155340000000     0.445690000000    -0.378397   
O50      O      0.179320000000     0.099850000000     0.419920000000    -0.364424   
O51      O      0.991400000000     0.131170000000     0.511720000000    -0.376696   
O52      O      0.909690000000     0.061880000000     0.544580000000    -0.373979   
O53      O      0.166480000000     0.015210000000     0.571360000000    -0.367291   
O54      O      0.191130000000     0.029130000000     0.495080000000    -0.368246   
O55      O      0.105330000000     0.050760000000     0.636000000000    -0.530034   
O56      O      0.084660000000     0.923280000000     0.625180000000    -0.349083   
O57      O      0.123370000000     0.156000000000     0.555250000000    -0.362944   
O58      O      0.075380000000     0.192130000000     0.450960000000    -0.514953   
O59      O      0.015550000000     0.041960000000     0.554190000000    -0.621522   
O60      O      0.107720000000     0.054190000000     0.513000000000    -0.500831   
O61      O      0.963470000000     0.929050000000     0.550350000000    -0.494878   
O62      O      0.051560000000     0.061540000000     0.422110000000    -0.625666   
O63      O      0.056400000000     0.940820000000     0.510600000000    -0.616681   
O64      O      0.960150000000     0.050010000000     0.464160000000    -0.489011   
O65      O      0.016740000000     0.346480000000     0.010270000000    -0.384066   
O66      O      0.999280000000     0.354190000000     0.930690000000    -0.376207   
O67      O      0.818570000000     0.403070000000     0.065130000000    -0.387615   
O68      O      0.869230000000     0.491120000000     0.079100000000    -0.362527   
O69      O      0.847100000000     0.315750000000     0.967320000000    -0.372788   
O70      O      0.898170000000     0.336000000000     0.901960000000    -0.358533   
O71      O      0.015430000000     0.434280000000     0.131920000000    -0.384839   
O72      O      0.998380000000     0.505210000000     0.133500000000    -0.385765   
O73      O      0.962220000000     0.328310000000     0.098440000000    -0.35345    
O74      O      0.107280000000     0.428900000000     0.078560000000    -0.534357   
O75      O      0.769730000000     0.316080000000     0.020110000000    -0.514167   
O76      O      0.782140000000     0.404190000000     0.940030000000    -0.360567   
O77      O      0.936750000000     0.381940000000     0.989510000000    -0.491663   
O78      O      0.930120000000     0.429470000000     0.058370000000    -0.623178   
O79      O      0.129510000000     0.617890000000     0.033460000000    -0.391698   
O80      O      0.056990000000     0.614650000000     0.073010000000    -0.360651   
O81      O      0.935590000000     0.520370000000     0.838030000000    -0.379722   
O82      O      0.959600000000     0.454170000000     0.836750000000    -0.388744   
O83      O      0.915770000000     0.594810000000     0.962740000000    -0.378104   
O84      O      0.938200000000     0.591540000000     0.041760000000    -0.383208   
O85      O      0.124150000000     0.549830000000     0.901780000000    -0.378192   
O86      O      0.080230000000     0.461180000000     0.891660000000    -0.370645   
O87      O      0.152040000000     0.645140000000     0.942040000000    -0.51928    
O88      O      0.176810000000     0.545480000000     0.004920000000    -0.362001   
O89      O      0.983500000000     0.625770000000     0.877100000000    -0.343188   
O90      O      0.839570000000     0.519610000000     0.888230000000    -0.522858   
O91      O      0.012200000000     0.571940000000     0.980620000000    -0.635125   
O92      O      0.017220000000     0.522950000000     0.912460000000    -0.495074   
O93      O      0.049840000000     0.509380000000     0.047860000000    -0.499462   
O94      O      0.897530000000     0.441540000000     0.921410000000    -0.63049    
O95      O      0.054840000000     0.459640000000     0.979400000000    -0.631108   
O96      O      0.893940000000     0.491630000000     0.992480000000    -0.489849   
O97      O      0.962500000000     0.335770000000     0.555080000000    -0.359532   
O98      O      0.986420000000     0.336360000000     0.480990000000    -0.370926   
O99      O      0.840070000000     0.488830000000     0.498560000000    -0.39264    
O100     O      0.902270000000     0.577060000000     0.493160000000    -0.350539   
O101     O      0.838610000000     0.359670000000     0.433300000000    -0.387994   
O102     O      0.909900000000     0.339810000000     0.420450000000    -0.364179   
O103     O      0.988600000000     0.484780000000     0.625370000000    -0.371069   
O104     O      0.980300000000     0.560630000000     0.603150000000    -0.378613   
O105     O      0.878270000000     0.370330000000     0.597770000000    -0.358649   
O106     O      0.022100000000     0.402850000000     0.631200000000    -0.523172   
O107     O      0.776160000000     0.392140000000     0.458400000000    -0.512916   
O108     O      0.851120000000     0.480180000000     0.376900000000    -0.357302   
O109     O      0.928470000000     0.401990000000     0.488550000000    -0.503369   
O110     O      0.924600000000     0.476770000000     0.530790000000    -0.611332   
O111     O      0.156910000000     0.621560000000     0.542790000000    -0.395292   
O112     O      0.089670000000     0.649580000000     0.545440000000    -0.357196   
O113     O      0.058680000000     0.524740000000     0.340620000000    -0.376794   
O114     O      0.034420000000     0.436680000000     0.358940000000    -0.389624   
O115     O      0.023580000000     0.647510000000     0.398630000000    -0.368425   
O116     O      0.020460000000     0.659230000000     0.475460000000    -0.364778   
O117     O      0.146130000000     0.502680000000     0.447920000000    -0.365012   
O118     O      0.095610000000     0.414430000000     0.453750000000    -0.363727   
O119     O      0.219260000000     0.603650000000     0.490990000000    -0.527451   
O120     O      0.153250000000     0.504050000000     0.575980000000    -0.373891   
O121     O      0.107420000000     0.636130000000     0.355400000000    -0.338088   
O122     O      0.959220000000     0.558060000000     0.325540000000    -0.524249   
O123     O      0.070290000000     0.588660000000     0.468860000000    -0.629128   
O124     O      0.073890000000     0.514410000000     0.429440000000    -0.470501   
O125     O      0.042410000000     0.521740000000     0.553920000000    -0.485329   
O126     O      0.953420000000     0.466860000000     0.401480000000    -0.624148   
O127     O      0.050180000000     0.445870000000     0.515870000000    -0.629622   
O128     O      0.948140000000     0.544310000000     0.443020000000    -0.487751   
O129     O      0.321760000000     0.957010000000     0.910510000000    -0.376398   
O130     O      0.301230000000     0.945040000000     0.987860000000    -0.36613    
O131     O      0.463130000000     0.828850000000     0.942370000000    -0.380756   
O132     O      0.557100000000     0.891480000000     0.925440000000    -0.36182    
O133     O      0.332010000000     0.817890000000     0.038350000000    -0.38202    
O134     O      0.307160000000     0.878510000000     0.059150000000    -0.352828   
O135     O      0.494630000000     0.013810000000     0.841580000000    -0.3675     
O136     O      0.567880000000     0.992890000000     0.864160000000    -0.371424   
O137     O      0.372850000000     0.929300000000     0.840000000000    -0.346899   
O138     O      0.417650000000     0.061680000000     0.865330000000    -0.532439   
O139     O      0.338550000000     0.800310000000     0.940840000000    -0.523164   
O140     O      0.426750000000     0.787280000000     0.037850000000    -0.342086   
O141     O      0.380040000000     0.920320000000     0.968500000000    -0.493236   
O142     O      0.464670000000     0.925300000000     0.925520000000    -0.623553   
O143     O      0.638200000000     0.123510000000     0.967870000000    -0.381216   
O144     O      0.650030000000     0.066670000000     0.926260000000    -0.352371   
O145     O      0.471740000000     0.940350000000     0.145280000000    -0.373618   
O146     O      0.395050000000     0.956450000000     0.121580000000    -0.372328   
O147     O      0.636310000000     0.977360000000     0.073820000000    -0.374185   
O148     O      0.657910000000     0.992740000000     0.996390000000    -0.368729   
O149     O      0.495230000000     0.100330000000     0.057470000000    -0.365801   
O150     O      0.396870000000     0.053500000000     0.049390000000    -0.372842   
O151     O      0.612610000000     0.164570000000     0.030610000000    -0.517273   
O152     O      0.521330000000     0.147600000000     0.939600000000    -0.372932   
O153     O      0.596320000000     0.023330000000     0.138720000000    -0.340661   
O154     O      0.536950000000     0.883520000000     0.124100000000    -0.525856   
O155     O      0.579320000000     0.025690000000     0.016290000000    -0.62982    
O156     O      0.494400000000     0.019830000000     0.059980000000    -0.474628   
O157     O      0.526860000000     0.037510000000     0.928460000000    -0.492572   
O158     O      0.434350000000     0.908450000000     0.056880000000    -0.632138   
O159     O      0.437290000000     0.033380000000     0.970910000000    -0.622645   
O160     O      0.521250000000     0.911340000000     0.013920000000    -0.489315   
O161     O      0.511860000000     0.143480000000     0.432130000000    -0.3794     
O162     O      0.555360000000     0.164730000000     0.505590000000    -0.369036   
O163     O      0.322430000000     0.868380000000     0.514550000000    -0.391725   
O164     O      0.365570000000     0.836440000000     0.471850000000    -0.376286   
O165     O      0.390750000000     0.013960000000     0.588190000000    -0.37846    
O166     O      0.466440000000     0.096600000000     0.567290000000    -0.354638   
O167     O      0.438570000000     0.992940000000     0.354500000000    -0.372726   
O168     O      0.436910000000     0.911980000000     0.372060000000    -0.377613   
O169     O      0.374050000000     0.043190000000     0.412520000000    -0.368055   
O170     O      0.493230000000     0.101240000000     0.348620000000    -0.516073   
O171     O      0.305600000000     0.955640000000     0.511150000000    -0.523424   
O172     O      0.357740000000     0.900510000000     0.610870000000    -0.346974   
O173     O      0.451570000000     0.044270000000     0.502060000000    -0.496043   
O174     O      0.411450000000     0.956760000000     0.456740000000    -0.630343   
O175     O      0.599670000000     0.981170000000     0.397450000000    -0.374761   
O176     O      0.541170000000     0.895720000000     0.423550000000    -0.35566    
O177     O      0.584740000000     0.003970000000     0.643300000000    -0.371878   
O178     O      0.580800000000     0.082640000000     0.625990000000    -0.38374    
O179     O      0.523900000000     0.854540000000     0.562070000000    -0.373788   
O180     O      0.481200000000     0.836550000000     0.487910000000    -0.377899   
O181     O      0.682270000000     0.102390000000     0.513630000000    -0.368158   
O182     O      0.644900000000     0.155080000000     0.524230000000    -0.352766   
O183     O      0.705050000000     0.030530000000     0.467520000000    -0.534147   
O184     O      0.655880000000     0.104940000000     0.396480000000    -0.360477   
O185     O      0.629980000000     0.941520000000     0.606740000000    -0.337936   
O186     O      0.485700000000     0.886120000000     0.644480000000    -0.530312   
O187     O      0.559810000000     0.948370000000     0.498900000000    -0.629355   
O188     O      0.597930000000     0.032920000000     0.542080000000    -0.477867   
O189     O      0.522290000000     0.998630000000     0.419220000000    -0.486024   
O190     O      0.487970000000     0.993050000000     0.581180000000    -0.631952   
O191     O      0.563500000000     0.083590000000     0.463000000000    -0.630945   
O192     O      0.447190000000     0.905600000000     0.536010000000    -0.502404   
O193     O      0.438980000000     0.321160000000     0.068270000000    -0.35885    
O194     O      0.491100000000     0.325750000000     0.007180000000    -0.35693    
O195     O      0.310660000000     0.461360000000     0.971540000000    -0.390749   
O196     O      0.368920000000     0.550030000000     0.976980000000    -0.345557   
O197     O      0.345680000000     0.343100000000     0.912830000000    -0.394807   
O198     O      0.411170000000     0.317840000000     0.946790000000    -0.352293   
O199     O      0.422490000000     0.458710000000     0.123200000000    -0.381097   
O200     O      0.433060000000     0.541150000000     0.094300000000    -0.374932   
O201     O      0.344890000000     0.344340000000     0.093810000000    -0.354552   
O202     O      0.490480000000     0.398540000000     0.143810000000    -0.527836   
O203     O      0.264420000000     0.363890000000     0.954060000000    -0.522742   
O204     O      0.344710000000     0.451380000000     0.864300000000    -0.368947   
O205     O      0.415160000000     0.383370000000     0.992800000000    -0.499102   
O206     O      0.395320000000     0.455180000000     0.022990000000    -0.617159   
O207     O      0.611150000000     0.606100000000     0.063260000000    -0.375297   
O208     O      0.550970000000     0.637700000000     0.030910000000    -0.353099   
O209     O      0.522760000000     0.487730000000     0.840080000000    -0.373911   
O210     O      0.520650000000     0.409030000000     0.872010000000    -0.375728   
O211     O      0.524130000000     0.631220000000     0.899160000000    -0.36492    
O212     O      0.473320000000     0.628750000000     0.960310000000    -0.352914   
O213     O      0.649380000000     0.498240000000     0.984140000000    -0.365439   
O214     O      0.597420000000     0.408860000000     0.979790000000    -0.367487   
O215     O      0.700070000000     0.581400000000     0.040630000000    -0.528921   
O216     O      0.615290000000     0.488830000000     0.103540000000    -0.368065   
O217     O      0.621910000000     0.599120000000     0.876920000000    -0.346324   
O218     O      0.482970000000     0.566100000000     0.825390000000    -0.522569   
O219     O      0.549680000000     0.569910000000     0.976130000000    -0.624603   
O220     O      0.570180000000     0.499470000000     0.947900000000    -0.472226   
O221     O      0.508490000000     0.506260000000     0.062380000000    -0.480961   
O222     O      0.452700000000     0.446880000000     0.908510000000    -0.629804   
O223     O      0.530610000000     0.432440000000     0.034170000000    -0.627221   
O224     O      0.433220000000     0.520330000000     0.935590000000    -0.484171   
O225     O      0.557710000000     0.378860000000     0.499240000000    -0.382961   
O226     O      0.536990000000     0.386970000000     0.420200000000    -0.381696   
O227     O      0.353750000000     0.428280000000     0.560330000000    -0.387292   
O228     O      0.392300000000     0.515900000000     0.566380000000    -0.349728   
O229     O      0.353880000000     0.350360000000     0.434050000000    -0.390529   
O230     O      0.427340000000     0.367360000000     0.387540000000    -0.353857   
O231     O      0.550340000000     0.456910000000     0.626860000000    -0.370621   
O232     O      0.508420000000     0.509760000000     0.631970000000    -0.384631   
O233     O      0.491580000000     0.349660000000     0.587580000000    -0.344488   
O234     O      0.637820000000     0.450970000000     0.572360000000    -0.527466   
O235     O      0.319770000000     0.331000000000     0.524050000000    -0.520295   
O236     O      0.305240000000     0.425300000000     0.442900000000    -0.362314   
O237     O      0.467540000000     0.405040000000     0.481360000000    -0.496771   
O238     O      0.459140000000     0.448760000000     0.552430000000    -0.626943   
O239     O      0.653860000000     0.649220000000     0.530460000000    -0.388151   
O240     O      0.579360000000     0.630660000000     0.576730000000    -0.364347   
O241     O      0.467700000000     0.552430000000     0.334650000000    -0.366723   
O242     O      0.481390000000     0.479920000000     0.330790000000    -0.379299   
O243     O      0.447550000000     0.619820000000     0.465470000000    -0.379998   
O244     O      0.466260000000     0.611840000000     0.544590000000    -0.377458   
O245     O      0.644330000000     0.576040000000     0.396520000000    -0.365345   
O246     O      0.609370000000     0.491000000000     0.381450000000    -0.362421   
O247     O      0.690220000000     0.671700000000     0.442610000000    -0.522879   
O248     O      0.704590000000     0.573200000000     0.512830000000    -0.366093   
O249     O      0.518810000000     0.655880000000     0.379580000000    -0.344463   
O250     O      0.373280000000     0.551840000000     0.385810000000    -0.524391   
O251     O      0.541020000000     0.596420000000     0.481570000000    -0.630847   
O252     O      0.549410000000     0.551900000000     0.410010000000    -0.480767   
O253     O      0.578200000000     0.532460000000     0.545360000000    -0.501752   
O254     O      0.429260000000     0.469790000000     0.417400000000    -0.629887   
O255     O      0.585210000000     0.487720000000     0.473490000000    -0.624887   
O256     O      0.423070000000     0.513340000000     0.488150000000    -0.484929   
Zr1      Zr     0.096270000000     0.007900000000     0.964870000000     1.38627    
Zr2      Zr     0.960140000000     0.026240000000     0.908940000000     1.38191    
Zr3      Zr     0.001340000000     0.912790000000     0.071000000000     1.37315    
Zr4      Zr     0.865830000000     0.929450000000     0.014700000000     1.37437    
Zr5      Zr     0.016880000000     0.053310000000     0.036590000000     1.35937    
Zr6      Zr     0.946550000000     0.887330000000     0.942040000000     1.3759     
Zr7      Zr     0.956090000000     0.883060000000     0.484990000000     1.35939    
Zr8      Zr     0.951820000000     0.002030000000     0.399620000000     1.36622    
Zr9      Zr     0.061910000000     0.987670000000     0.575870000000     1.36596    
Zr10     Zr     0.060620000000     0.106320000000     0.489490000000     1.37721    
Zr11     Zr     0.100320000000     0.008940000000     0.446120000000     1.34538    
Zr12     Zr     0.915920000000     0.982310000000     0.527420000000     1.3613     
Zr13     Zr     0.010270000000     0.414220000000     0.050760000000     1.3875     
Zr14     Zr     0.857180000000     0.397200000000     0.994690000000     1.37834    
Zr15     Zr     0.090490000000     0.554020000000     0.974980000000     1.38874    
Zr16     Zr     0.936160000000     0.536790000000     0.920190000000     1.38245    
Zr17     Zr     0.979760000000     0.427690000000     0.917100000000     1.37025    
Zr18     Zr     0.970000000000     0.525700000000     0.053620000000     1.3653     
Zr19     Zr     0.973510000000     0.427260000000     0.563600000000     1.37986    
Zr20     Zr     0.880790000000     0.450830000000     0.453580000000     1.38102    
Zr21     Zr     0.117790000000     0.539520000000     0.505320000000     1.38284    
Zr22     Zr     0.023290000000     0.561090000000     0.394020000000     1.3757     
Zr23     Zr     0.004280000000     0.420140000000     0.439120000000     1.36631    
Zr24     Zr     0.994750000000     0.572350000000     0.518680000000     1.3503     
Zr25     Zr     0.426120000000     0.985570000000     0.904870000000     1.37602    
Zr26     Zr     0.419070000000     0.861210000000     0.990500000000     1.38091    
Zr27     Zr     0.538720000000     0.083920000000     0.995090000000     1.36392    
Zr28     Zr     0.535100000000     0.960660000000     0.079880000000     1.374      
Zr29     Zr     0.392220000000     0.966910000000     0.035830000000     1.35162    
Zr30     Zr     0.566870000000     0.977370000000     0.949450000000     1.35004    
Zr31     Zr     0.469510000000     0.046220000000     0.422620000000     1.37558    
Zr32     Zr     0.396360000000     0.955180000000     0.537530000000     1.39408    
Zr33     Zr     0.615050000000     0.035650000000     0.461340000000     1.38001    
Zr34     Zr     0.540020000000     0.944500000000     0.578470000000     1.37343    
Zr35     Zr     0.545430000000     0.081700000000     0.543810000000     1.36551    
Zr36     Zr     0.466210000000     0.909950000000     0.455580000000     1.36699    
Zr37     Zr     0.443170000000     0.410860000000     0.069530000000     1.37829    
Zr38     Zr     0.367640000000     0.426150000000     0.945270000000     1.3864     
Zr39     Zr     0.595290000000     0.526430000000     0.026740000000     1.3657     
Zr40     Zr     0.520720000000     0.541520000000     0.899680000000     1.37352    
Zr41     Zr     0.502100000000     0.404030000000     0.955710000000     1.35976    
Zr42     Zr     0.461850000000     0.551300000000     0.012920000000     1.34484    
Zr43     Zr     0.541580000000     0.437990000000     0.543820000000     1.3796     
Zr44     Zr     0.386740000000     0.418960000000     0.488260000000     1.38075    
Zr45     Zr     0.621450000000     0.582100000000     0.474350000000     1.37542    
Zr46     Zr     0.468150000000     0.564840000000     0.418560000000     1.37809    
Zr47     Zr     0.510450000000     0.456080000000     0.409900000000     1.36927    
Zr48     Zr     0.495420000000     0.544300000000     0.552160000000     1.3686     


