data_structure

_audit_creation_method RASPA-1.0
_audit_creation_date 2023-6-4
_audit_author_name 'Poobodin Mano'

_cell_length_a    34.0775
_cell_length_b    37.4208
_cell_length_c    38.3604
_cell_angle_alpha 82.7624
_cell_angle_beta  96.3263
_cell_angle_gamma 119.436
_cell_volume      42197

_symmetry_cell_setting          triclinic
_symmetry_space_group_name_Hall 'P 1'
_symmetry_space_group_name_H-M  'P 1'
_symmetry_Int_Tables_number     1

_symmetry_equiv_pos_as_xyz 'x,y,z'

loop_
_atom_site_label
_atom_site_type_symbol
_atom_site_fract_x
_atom_site_fract_y
_atom_site_fract_z
_atom_site_charge
C1       C      0.134960000000     0.091100000000     0.997520000000     0.40578    
C2       C      0.937010000000     0.959050000000     0.850680000000     0.388241   
C3       C      0.032330000000     0.124550000000     0.955290000000     0.404932   
C4       C      0.044870000000     0.924420000000     0.903250000000     0.396522   
C5       C      0.946600000000     0.837900000000     0.989720000000     0.404034   
C6       C      0.934080000000     0.028350000000     0.050330000000     0.379326   
C7       C      0.838110000000     0.870180000000     0.949700000000     0.404012   
C8       C      0.035400000000     0.001230000000     0.096430000000     0.39761    
C9       C      0.022930000000     0.889280000000     0.427720000000     0.380889   
C10      C      0.837250000000     0.961750000000     0.440780000000     0.392867   
C11      C      0.021150000000     0.993290000000     0.352080000000     0.393656   
C12      C      0.849840000000     0.865450000000     0.517620000000     0.388633   
C13      C      0.949980000000     0.960380000000     0.595630000000     0.394202   
C14      C      0.126820000000     0.094130000000     0.431750000000     0.390642   
C15      C      0.944820000000     0.072830000000     0.514430000000     0.392462   
C16      C      0.141250000000     0.011610000000     0.506090000000     0.396045   
C17      C      0.035980000000     0.380020000000     0.965240000000     0.402882   
C18      C      0.868070000000     0.456220000000     0.038370000000     0.39894    
C19      C      0.893690000000     0.355520000000     0.916690000000     0.398656   
C20      C      0.010020000000     0.474190000000     0.099920000000     0.403312   
C21      C      0.084610000000     0.603780000000     0.032610000000     0.399287   
C22      C      0.967370000000     0.486450000000     0.847910000000     0.40512    
C23      C      0.941850000000     0.580490000000     0.982280000000     0.403337   
C24      C      0.101950000000     0.509260000000     0.900910000000     0.386791   
C25      C      0.966050000000     0.340780000000     0.500260000000     0.386808   
C26      C      0.880520000000     0.511890000000     0.500750000000     0.396196   
C27      C      0.877330000000     0.355090000000     0.429560000000     0.407318   
C28      C      0.984410000000     0.497880000000     0.594330000000     0.399703   
C29      C      0.104360000000     0.604190000000     0.524170000000     0.39925    
C30      C      0.010480000000     0.469610000000     0.355330000000     0.402951   
C31      C      0.008600000000     0.618900000000     0.446940000000     0.387854   
C32      C      0.097280000000     0.454410000000     0.441590000000     0.379102   
C33      C      0.333710000000     0.954710000000     0.938820000000     0.395358   
C34      C      0.526690000000     0.888460000000     0.930470000000     0.39499    
C35      C      0.344620000000     0.868810000000     0.011510000000     0.39213    
C36      C      0.523050000000     0.000550000000     0.849760000000     0.394896   
C37      C      0.624720000000     0.095390000000     0.928540000000     0.389921   
C38      C      0.450970000000     0.968320000000     0.093280000000     0.392422   
C39      C      0.633570000000     0.996370000000     0.004710000000     0.389209   
C40      C      0.445990000000     0.075490000000     0.014330000000     0.392887   
C41      C      0.537710000000     0.124200000000     0.455960000000     0.400344   
C42      C      0.334890000000     0.872240000000     0.451550000000     0.402515   
C43      C      0.432780000000     0.039610000000     0.541240000000     0.390603   
C44      C      0.439600000000     0.960320000000     0.349660000000     0.395489   
C45      C      0.534470000000     0.928110000000     0.397000000000     0.369837   
C46      C      0.537270000000     0.999330000000     0.595430000000     0.384692   
C47      C      0.438510000000     0.834110000000     0.489250000000     0.402881   
C48      C      0.637110000000     0.086820000000     0.495770000000     0.398169   
C49      C      0.462210000000     0.342620000000     0.999270000000     0.387905   
C50      C      0.376250000000     0.514690000000     0.998320000000     0.3968     
C51      C      0.373130000000     0.357980000000     0.927290000000     0.405739   
C52      C      0.479930000000     0.500280000000     0.092670000000     0.404268   
C53      C      0.599760000000     0.604930000000     0.023850000000     0.396844   
C54      C      0.500990000000     0.469300000000     0.853700000000     0.40491    
C55      C      0.510360000000     0.622440000000     0.946760000000     0.386348   
C56      C      0.593340000000     0.455210000000     0.940910000000     0.382618   
C57      C      0.534820000000     0.375170000000     0.467570000000     0.404042   
C58      C      0.368600000000     0.461580000000     0.536710000000     0.40238    
C59      C      0.392800000000     0.356040000000     0.413940000000     0.396877   
C60      C      0.507260000000     0.469540000000     0.600160000000     0.406327   
C61      C      0.588050000000     0.599870000000     0.534730000000     0.399345   
C62      C      0.477880000000     0.488220000000     0.348350000000     0.404532   
C63      C      0.448570000000     0.581890000000     0.481710000000     0.401672   
C64      C      0.604590000000     0.504120000000     0.404160000000     0.386116   
C65      C      0.498230000000     0.430880000000     0.656740000000     0.101394   
C66      C      0.529890000000     0.503840000000     0.651690000000     0.072963   
C67      C      0.500870000000     0.430550000000     0.693450000000    -0.099531   
C68      C      0.518360000000     0.438120000000     0.772330000000    -0.0850142  
C69      C      0.534200000000     0.504360000000     0.687970000000    -0.090036   
C70      C      0.514210000000     0.467190000000     0.747490000000     0.0325408  
C71      C      0.517800000000     0.467350000000     0.709330000000     0.0403814  
C72      C      0.512950000000     0.438430000000     0.807910000000     0.0691875  
C73      C      0.500440000000     0.495810000000     0.794550000000     0.0709536  
C74      C      0.504380000000     0.495680000000     0.759110000000    -0.0871233  
C75      C      0.460470000000     0.523290000000     0.141110000000     0.102039   
C76      C      0.505030000000     0.489590000000     0.150220000000     0.0744726  
C77      C      0.460010000000     0.523130000000     0.177680000000    -0.0992137  
C78      C      0.478310000000     0.530860000000     0.256960000000    -0.0849236  
C79      C      0.505900000000     0.489950000000     0.186260000000    -0.0918042  
C80      C      0.477850000000     0.500310000000     0.239050000000     0.0318278  
C81      C      0.481740000000     0.505230000000     0.200510000000     0.0412997  
C82      C      0.476950000000     0.525860000000     0.293560000000     0.0673881  
C83      C      0.474150000000     0.461100000000     0.294750000000     0.070223   
C84      C      0.474430000000     0.464660000000     0.258370000000    -0.0856174  
C85      C      0.397820000000     0.765620000000     0.468930000000     0.102242   
C86      C      0.447960000000     0.779680000000     0.519860000000     0.0678766  
C87      C      0.394070000000     0.726740000000     0.469640000000    -0.101406   
C88      C      0.424310000000     0.666900000000     0.457800000000    -0.0859176  
C89      C      0.445260000000     0.741240000000     0.520710000000    -0.0899551  
C90      C      0.422140000000     0.677400000000     0.491080000000     0.0306117  
C91      C      0.419600000000     0.715090000000     0.494440000000     0.0396951  
C92      C      0.431360000000     0.633810000000     0.454990000000     0.0665568  
C93      C      0.432890000000     0.620610000000     0.517140000000     0.0679262  
C94      C      0.425350000000     0.653190000000     0.520880000000    -0.086992   
C95      C      0.556480000000     0.324210000000     0.494170000000     0.0991417  
C96      C      0.554910000000     0.340100000000     0.432120000000     0.0687337  
C97      C      0.566060000000     0.292970000000     0.489330000000    -0.0994726  
C98      C      0.592750000000     0.231540000000     0.475390000000    -0.0875708  
C99      C      0.565220000000     0.309680000000     0.426900000000    -0.0910852  
C100     C      0.570250000000     0.246670000000     0.450400000000     0.0311461  
C101     C      0.569160000000     0.284650000000     0.455540000000     0.0390357  
C102     C      0.583160000000     0.190880000000     0.475820000000     0.0693685  
C103     C      0.535190000000     0.181820000000     0.424150000000     0.0675662  
C104     C      0.543070000000     0.222070000000     0.423450000000    -0.0864698  
C105     C      0.514420000000     0.024390000000     0.789050000000     0.102727   
C106     C      0.559550000000     0.991940000000     0.804550000000     0.0663133  
C107     C      0.520780000000     0.025550000000     0.753330000000    -0.0987231  
C108     C      0.557080000000     0.042390000000     0.680710000000    -0.0835227  
C109     C      0.566070000000     0.992570000000     0.768940000000    -0.0883247  
C110     C      0.550180000000     0.008390000000     0.704470000000     0.030762   
C111     C      0.546130000000     0.009090000000     0.742770000000     0.0397568  
C112     C      0.554940000000     0.039540000000     0.644420000000     0.0654033  
C113     C      0.541340000000     0.970770000000     0.654390000000     0.0638911  
C114     C      0.543650000000     0.972710000000     0.690880000000    -0.0844624  
C115     C      0.412800000000     0.974720000000     0.140640000000     0.0975146  
C116     C      0.464640000000     0.948940000000     0.152650000000     0.067686   
C117     C      0.406930000000     0.970890000000     0.177010000000    -0.0970766  
C118     C      0.432620000000     0.989420000000     0.254880000000    -0.0853227  
C119     C      0.458760000000     0.944360000000     0.188690000000    -0.0884073  
C120     C      0.427390000000     0.954900000000     0.240120000000     0.0308844  
C121     C      0.430150000000     0.955860000000     0.201420000000     0.0381209  
C122     C      0.435320000000     0.990180000000     0.291460000000     0.0663222  
C123     C      0.424720000000     0.922280000000     0.299490000000     0.0669137  
C124     C      0.422750000000     0.920820000000     0.262920000000    -0.0836282  
C125     C      0.576330000000     0.858870000000     0.933980000000     0.0967668  
C126     C      0.502680000000     0.825900000000     0.906280000000     0.0694745  
C127     C      0.578900000000     0.822270000000     0.934290000000    -0.0969614  
C128     C      0.536230000000     0.727340000000     0.961630000000    -0.0852312  
C129     C      0.505040000000     0.789930000000     0.905190000000    -0.0893912  
C130     C      0.539560000000     0.745870000000     0.927310000000     0.0296934  
C131     C      0.542360000000     0.787060000000     0.920860000000     0.0380512  
C132     C      0.525970000000     0.686060000000     0.967540000000     0.0646161  
C133     C      0.524850000000     0.681530000000     0.906390000000     0.0640343  
C134     C      0.533680000000     0.722500000000     0.899480000000    -0.083754   
C135     C      0.396910000000     0.105890000000     0.011350000000     0.0971364  
C136     C      0.471030000000     0.138650000000     0.038170000000     0.0703421  
C137     C      0.394780000000     0.142750000000     0.011130000000    -0.0965512  
C138     C      0.438070000000     0.241750000000     0.045740000000    -0.0841467  
C139     C      0.469130000000     0.174900000000     0.039280000000    -0.0888618  
C140     C      0.434650000000     0.219330000000     0.017860000000     0.0294346  
C141     C      0.431740000000     0.178000000000     0.024140000000     0.0377699  
C142     C      0.446370000000     0.282660000000     0.039110000000     0.0637772  
C143     C      0.449650000000     0.280010000000     0.978240000000     0.064432   
C144     C      0.440020000000     0.238840000000     0.983820000000    -0.085273   
C145     C      0.799640000000     0.303830000000     0.427350000000     0.106985   
C146     C      0.857160000000     0.284790000000     0.434390000000     0.071855   
C147     C      0.768630000000     0.264760000000     0.441110000000    -0.103137   
C148     C      0.720610000000     0.195100000000     0.495120000000    -0.0847846  
C149     C      0.827010000000     0.245510000000     0.448560000000    -0.0894037  
C150     C      0.750980000000     0.196600000000     0.472310000000     0.0304333  
C151     C      0.782950000000     0.236210000000     0.454150000000     0.0409312  
C152     C      0.684820000000     0.157230000000     0.506390000000     0.0670736  
C153     C      0.711850000000     0.122540000000     0.476620000000     0.0666997  
C154     C      0.748020000000     0.159740000000     0.464950000000    -0.0850602  
C155     C      0.127830000000     0.675610000000     0.529340000000     0.101425   
C156     C      0.180130000000     0.655030000000     0.517490000000     0.0690785  
C157     C      0.154530000000     0.714890000000     0.512780000000    -0.0993227  
C158     C      0.246200000000     0.766060000000     0.448740000000    -0.0837359  
C159     C      0.208000000000     0.693850000000     0.501890000000    -0.0917705  
C160     C      0.221870000000     0.763430000000     0.477190000000     0.0311951  
C161     C      0.193590000000     0.723280000000     0.496680000000     0.0396609  
C162     C      0.281160000000     0.804230000000     0.436720000000     0.0689766  
C163     C      0.263190000000     0.837180000000     0.476050000000     0.0672615  
C164     C      0.228400000000     0.799870000000     0.488880000000    -0.0843481  
C165     C      0.661330000000     0.483460000000     0.402470000000     0.100373   
C166     C      0.681910000000     0.550630000000     0.416390000000     0.0683295  
C167     C      0.702860000000     0.488250000000     0.417300000000    -0.0995564  
C168     C      0.765280000000     0.489730000000     0.478650000000    -0.0870837  
C169     C      0.723630000000     0.556290000000     0.431320000000    -0.0878185  
C170     C      0.771790000000     0.524660000000     0.456590000000     0.0320435  
C171     C      0.732940000000     0.523670000000     0.434220000000     0.0400338  
C172     C      0.802050000000     0.487810000000     0.496290000000     0.0676756  
C173     C      0.851550000000     0.556170000000     0.474490000000     0.0675226  
C174     C      0.815120000000     0.559100000000     0.456060000000    -0.0840641  
C175     C      0.290650000000     0.423670000000     0.547770000000     0.109307   
C176     C      0.327990000000     0.496480000000     0.541810000000     0.0690803  
C177     C      0.249570000000     0.422040000000     0.536080000000    -0.0979124  
C178     C      0.164830000000     0.421840000000     0.504310000000    -0.0816007  
C179     C      0.287120000000     0.495990000000     0.530870000000    -0.087073   
C180     C      0.207770000000     0.457050000000     0.502870000000     0.0334135  
C181     C      0.248010000000     0.458420000000     0.524410000000     0.0395866  
C182     C      0.128930000000     0.420100000000     0.481670000000     0.0677961  
C183     C      0.175710000000     0.487630000000     0.456890000000     0.0673864  
C184     C      0.212740000000     0.489810000000     0.478050000000    -0.0844834  
C185     C      0.946750000000     0.453370000000     0.794130000000     0.102262   
C186     C      0.974660000000     0.525580000000     0.793340000000     0.0697929  
C187     C      0.948360000000     0.457020000000     0.757650000000    -0.0998828  
C188     C      0.989240000000     0.475200000000     0.689310000000    -0.0861694  
C189     C      0.977350000000     0.530120000000     0.756870000000    -0.0891443  
C190     C      0.973850000000     0.499740000000     0.701060000000     0.0319948  
C191     C      0.965830000000     0.495770000000     0.738870000000     0.0401446  
C192     C      0.993460000000     0.475880000000     0.653730000000     0.0687012  
C193     C      0.971610000000     0.527510000000     0.640720000000     0.0678373  
C194     C      0.966110000000     0.527010000000     0.676480000000    -0.0846292  
C195     C      0.034240000000     0.450840000000     0.156470000000     0.100702   
C196     C      0.995570000000     0.489720000000     0.153230000000     0.0687985  
C197     C      0.035630000000     0.448510000000     0.193370000000    -0.0997572  
C198     C      0.008870000000     0.431990000000     0.271060000000    -0.0823264  
C199     C      0.997030000000     0.488030000000     0.189600000000    -0.093036   
C200     C      0.021030000000     0.468010000000     0.248700000000     0.029911   
C201     C      0.017440000000     0.467570000000     0.210060000000     0.0434023  
C202     C      0.007380000000     0.433110000000     0.307230000000     0.0690446  
C203     C      0.032390000000     0.504860000000     0.299170000000     0.0672173  
C204     C      0.034430000000     0.504860000000     0.263310000000    -0.0853873  
C205     C      0.869930000000     0.284860000000     0.909400000000     0.0979762  
C206     C      0.824700000000     0.315590000000     0.887100000000     0.0720965  
C207     C      0.831950000000     0.245290000000     0.906760000000    -0.096219   
C208     C      0.740210000000     0.162770000000     0.897700000000    -0.082408   
C209     C      0.787230000000     0.277110000000     0.882970000000    -0.0893363  
C210     C      0.746300000000     0.201910000000     0.902360000000     0.0299369  
C211     C      0.789330000000     0.241270000000     0.895630000000     0.0381046  
C212     C      0.698980000000     0.127070000000     0.905740000000     0.0642911  
C213     C      0.670610000000     0.168120000000     0.923090000000     0.065817   
C214     C      0.710620000000     0.203780000000     0.915360000000    -0.0851259  
C215     C      0.155650000000     0.646970000000     0.060140000000     0.103185   
C216     C      0.104890000000     0.672550000000     0.040430000000     0.0668047  
C217     C      0.191290000000     0.687130000000     0.061940000000    -0.100417   
C218     C      0.257710000000     0.760430000000     0.020720000000    -0.0855407  
C219     C      0.140520000000     0.713400000000     0.040770000000    -0.0872226  
C220     C      0.225180000000     0.761050000000     0.039440000000     0.0299969  
C221     C      0.184860000000     0.720810000000     0.049380000000     0.0381528  
C222     C      0.296540000000     0.796580000000     0.011680000000     0.0676697  
C223     C      0.272440000000     0.835760000000     0.038190000000     0.0648008  
C224     C      0.232330000000     0.799460000000     0.047650000000    -0.0825067  
C225     C      0.818310000000     0.484330000000     0.043310000000     0.103014   
C226     C      0.789090000000     0.415600000000     0.029300000000     0.0755595  
C227     C      0.777650000000     0.483340000000     0.030230000000    -0.0985845  
C228     C      0.708880000000     0.486070000000     0.974990000000    -0.0851472  
C229     C      0.748590000000     0.413800000000     0.015990000000    -0.0885741  
C230     C      0.703890000000     0.449780000000     0.994190000000     0.0321468  
C231     C      0.743460000000     0.448780000000     0.014180000000     0.040156   
C232     C      0.671980000000     0.486710000000     0.955840000000     0.0669161  
C233     C      0.625490000000     0.415810000000     0.972260000000     0.0665397  
C234     C      0.661550000000     0.414210000000     0.992200000000    -0.0832827  
C235     C      0.158950000000     0.489080000000     0.898640000000     0.0998898  
C236     C      0.179230000000     0.555820000000     0.913540000000     0.0684754  
C237     C      0.200370000000     0.493670000000     0.913580000000    -0.0994505  
C238     C      0.261540000000     0.493920000000     0.975520000000    -0.0868248  
C239     C      0.220870000000     0.561280000000     0.928580000000    -0.087424   
C240     C      0.268670000000     0.529160000000     0.953680000000     0.032151   
C241     C      0.230210000000     0.528700000000     0.931050000000     0.0398865  
C242     C      0.297930000000     0.491430000000     0.993330000000     0.0680945  
C243     C      0.348250000000     0.559800000000     0.972150000000     0.0676851  
C244     C      0.312210000000     0.563320000000     0.953580000000    -0.0839973  
C245     C      0.658470000000     0.641910000000     0.563850000000     0.102524   
C246     C      0.609890000000     0.669190000000     0.541780000000     0.0665638  
C247     C      0.694630000000     0.681700000000     0.566590000000    -0.0999688  
C248     C      0.735660000000     0.794960000000     0.549940000000    -0.0819484  
C249     C      0.646160000000     0.709650000000     0.542910000000    -0.0870754  
C250     C      0.731290000000     0.756430000000     0.545300000000     0.0290089  
C251     C      0.689850000000     0.716090000000     0.553260000000     0.038234   
C252     C      0.775790000000     0.831570000000     0.541200000000     0.0637601  
C253     C      0.806150000000     0.792520000000     0.522970000000     0.0639344  
C254     C      0.767310000000     0.756030000000     0.531390000000    -0.0837813  
C255     C      0.322510000000     0.314860000000     0.384360000000     0.106119   
C256     C      0.369680000000     0.286370000000     0.407380000000     0.0674104  
C257     C      0.285580000000     0.275390000000     0.382210000000    -0.0990181  
C258     C      0.212600000000     0.202710000000     0.419320000000    -0.0846433  
C259     C      0.332700000000     0.246240000000     0.406650000000    -0.086714   
C260     C      0.247400000000     0.201110000000     0.404570000000     0.0303811  
C261     C      0.289380000000     0.240690000000     0.396160000000     0.0385317  
C262     C      0.173100000000     0.166860000000     0.427840000000     0.0655855  
C263     C      0.200560000000     0.126310000000     0.408010000000     0.0648077  
C264     C      0.241300000000     0.162170000000     0.399280000000    -0.0829851  
C265     C      0.778720000000     0.957950000000     0.396030000000     0.0970938  
C266     C      0.761950000000     0.937340000000     0.456170000000     0.0656874  
C267     C      0.733300000000     0.946830000000     0.387270000000    -0.0978671  
C268     C      0.649830000000     0.956010000000     0.382620000000    -0.0847975  
C269     C      0.716590000000     0.926440000000     0.447900000000    -0.0887385  
C270     C      0.655430000000     0.925650000000     0.404280000000     0.0270097  
C271     C      0.701830000000     0.931470000000     0.413140000000     0.0371114  
C272     C      0.607800000000     0.954120000000     0.378200000000     0.0671868  
C273     C      0.574840000000     0.890590000000     0.413120000000     0.0628602  
C274     C      0.617000000000     0.891880000000     0.418750000000    -0.0859102  
C275     C      0.205420000000     0.034040000000     0.549650000000     0.0986292  
C276     C      0.215940000000     0.036240000000     0.489030000000     0.0669684  
C277     C      0.251780000000     0.048470000000     0.557220000000    -0.0976427  
C278     C      0.363580000000     0.088250000000     0.519220000000    -0.0865531  
C279     C      0.262150000000     0.050320000000     0.496220000000    -0.0870451  
C280     C      0.326910000000     0.061730000000     0.539950000000     0.0298817  
C281     C      0.280430000000     0.055600000000     0.530770000000     0.0384225  
C282     C      0.403610000000     0.085550000000     0.523950000000     0.0608053  
C283     C      0.372810000000     0.033700000000     0.570630000000     0.0701972  
C284     C      0.333300000000     0.036400000000     0.567450000000    -0.0842229  
C285     C      0.010660000000     0.675810000000     0.406070000000     0.099502   
C286     C      0.026810000000     0.683050000000     0.467350000000     0.0656143  
C287     C      0.017320000000     0.716400000000     0.400830000000    -0.0970283  
C288     C      0.992870000000     0.784420000000     0.410500000000    -0.0863817  
C289     C      0.034670000000     0.723710000000     0.462530000000    -0.0874327  
C290     C      0.031040000000     0.781680000000     0.424420000000     0.0311109  
C291     C      0.029390000000     0.740740000000     0.429080000000     0.0375422  
C292     C      0.991750000000     0.821270000000     0.410360000000     0.0637948  
C293     C      0.067060000000     0.854550000000     0.434270000000     0.0603789  
C294     C      0.068780000000     0.817480000000     0.435920000000    -0.0839499  
C295     C      0.896020000000     0.103240000000     0.511250000000     0.0963002  
C296     C      0.969210000000     0.134760000000     0.539820000000     0.069871   
C297     C      0.894260000000     0.140240000000     0.511190000000    -0.0963835  
C298     C      0.937540000000     0.238840000000     0.546450000000    -0.0836692  
C299     C      0.967650000000     0.171100000000     0.541140000000    -0.0878678  
C300     C      0.935010000000     0.216630000000     0.518730000000     0.0296402  
C301     C      0.931020000000     0.174930000000     0.525170000000     0.0374426  
C302     C      0.947220000000     0.280130000000     0.539860000000     0.0629644  
C303     C      0.953720000000     0.278170000000     0.479420000000     0.064167   
C304     C      0.942790000000     0.236690000000     0.484920000000    -0.0853217  
C305     C      0.959130000000     0.935700000000     0.655970000000     0.0995528  
C306     C      0.912870000000     0.967130000000     0.641490000000     0.0661575  
C307     C      0.953050000000     0.933970000000     0.691850000000    -0.0989926  
C308     C      0.929090000000     0.985230000000     0.755270000000    -0.0847157  
C309     C      0.906540000000     0.965870000000     0.677270000000    -0.087517   
C310     C      0.923760000000     0.950070000000     0.741520000000     0.030307   
C311     C      0.927280000000     0.949650000000     0.703040000000     0.0381324  
C312     C      0.931690000000     0.987100000000     0.791780000000     0.0650207  
C313     C      0.920950000000     0.919240000000     0.801610000000     0.065963   
C314     C      0.918550000000     0.916470000000     0.765260000000    -0.0831257  
C315     C      0.053380000000     0.978250000000     0.155220000000     0.100203   
C316     C      0.040740000000     0.035840000000     0.146010000000     0.0696243  
C317     C      0.054810000000     0.979520000000     0.191860000000    -0.0997307  
C318     C      0.006170000000     0.007830000000     0.255960000000    -0.0774471  
C319     C      0.041610000000     0.037380000000     0.182360000000    -0.0885395  
C320     C      0.042670000000     0.006250000000     0.244320000000     0.0268021  
C321     C      0.047460000000     0.008330000000     0.205790000000     0.041467   
C322     C      0.999740000000     0.003400000000     0.291880000000     0.0599294  
C323     C      0.065710000000     0.997220000000     0.305780000000     0.0633207  
C324     C      0.072680000000     0.000810000000     0.269740000000    -0.0792465  
C325     C      0.760470000000     0.834560000000     0.963790000000     0.103971   
C326     C      0.794240000000     0.798570000000     0.944790000000     0.0684351  
C327     C      0.726850000000     0.798030000000     0.979460000000    -0.0998073  
C328     C      0.652300000000     0.714640000000     0.004960000000    -0.0843496  
C329     C      0.760300000000     0.761420000000     0.959200000000    -0.0891409  
C330     C      0.696210000000     0.722980000000     0.999490000000     0.0306977  
C331     C      0.728100000000     0.761280000000     0.979230000000     0.0388933  
C332     C      0.621420000000     0.675850000000     0.019450000000     0.0663603  
C333     C      0.677110000000     0.654810000000     0.026070000000     0.0685616  
C334     C      0.709290000000     0.693600000000     0.013030000000    -0.0872462  
C335     C      0.212630000000     0.126720000000     0.983390000000     0.106403   
C336     C      0.179900000000     0.161970000000     0.005350000000     0.0710856  
C337     C      0.246740000000     0.163800000000     0.968970000000    -0.0997428  
C338     C      0.321720000000     0.248130000000     0.945690000000    -0.0842698  
C339     C      0.214330000000     0.199580000000     0.992230000000    -0.0891335  
C340     C      0.277840000000     0.239370000000     0.951800000000     0.0323129  
C341     C      0.246140000000     0.200460000000     0.971300000000     0.0405208  
C342     C      0.352210000000     0.287250000000     0.931520000000     0.0701226  
C343     C      0.296120000000     0.307770000000     0.926750000000     0.070304   
C344     C      0.264360000000     0.268730000000     0.939430000000    -0.0871999  
C345     C      0.862300000000     0.004700000000     0.073470000000     0.101673   
C346     C      0.893150000000     0.064350000000     0.033300000000     0.0651942  
C347     C      0.819950000000     0.002600000000     0.068350000000    -0.0986758  
C348     C      0.752450000000     0.024890000000     0.998230000000    -0.0850562  
C349     C      0.851010000000     0.062630000000     0.027310000000    -0.0921557  
C350     C      0.767020000000     0.023690000000     0.033720000000     0.0295666  
C351     C      0.813410000000     0.030370000000     0.043750000000     0.0353934  
C352     C      0.707650000000     0.015140000000     0.988990000000     0.0662808  
C353     C      0.691460000000     0.003780000000     0.049150000000     0.0658625  
C354     C      0.735900000000     0.012970000000     0.059280000000    -0.0841266  
C355     C      0.101600000000     0.929290000000     0.869460000000     0.106159   
C356     C      0.072550000000     0.877770000000     0.916760000000     0.0652587  
C357     C      0.141830000000     0.927430000000     0.872640000000    -0.0987874  
C358     C      0.212590000000     0.916740000000     0.946110000000    -0.0833945  
C359     C      0.112920000000     0.875920000000     0.921210000000    -0.0897274  
C360     C      0.196180000000     0.911280000000     0.910960000000     0.03034    
C361     C      0.149270000000     0.903190000000     0.900600000000     0.0385137  
C362     C      0.258520000000     0.931150000000     0.954980000000     0.0674245  
C363     C      0.272340000000     0.933410000000     0.895350000000     0.0647868  
C364     C      0.226640000000     0.919230000000     0.885560000000    -0.0834964  
C365     C      0.957630000000     0.782000000000     0.019190000000     0.096738   
C366     C      0.903460000000     0.770930000000     0.971080000000     0.0696634  
C367     C      0.948580000000     0.741310000000     0.019640000000    -0.0991491  
C368     C      0.919790000000     0.652200000000     0.021660000000    -0.0880566  
C369     C      0.893730000000     0.730240000000     0.971330000000    -0.0909318  
C370     C      0.914310000000     0.675160000000     0.991760000000     0.0309351  
C371     C      0.917470000000     0.715440000000     0.995020000000     0.0389399  
C372     C      0.927860000000     0.620010000000     0.017960000000     0.0690173  
C373     C      0.919090000000     0.628990000000     0.955810000000     0.0674843  
C374     C      0.912220000000     0.662260000000     0.958540000000    -0.0858235  
C375     C      0.029790000000     0.183590000000     0.922600000000     0.102223   
C376     C      0.075450000000     0.190700000000     0.975650000000     0.0705854  
C377     C      0.038630000000     0.224180000000     0.922940000000    -0.101194   
C378     C      0.062690000000     0.296410000000     0.988340000000    -0.0859459  
C379     C      0.085300000000     0.231320000000     0.976060000000    -0.0918107  
C380     C      0.065960000000     0.286980000000     0.954920000000     0.0305008  
C381     C      0.064890000000     0.247780000000     0.950570000000     0.0399458  
C382     C      0.054860000000     0.328990000000     0.991520000000     0.0671388  
C383     C      0.055310000000     0.344110000000     0.929590000000     0.0692976  
C384     C      0.064270000000     0.312490000000     0.925530000000    -0.0868903  
H1       H      0.015070000000     0.987570000000     0.891030000000     0.205534   
H2       H      0.946190000000     0.047480000000     0.974240000000     0.191953   
H3       H      0.906990000000     0.886760000000     0.000660000000     0.19618    
H4       H      0.079230000000     0.005350000000     0.028830000000     0.189215   
H5       H      0.919300000000     0.066270000000     0.910540000000     0.131745   
H6       H      0.863590000000     0.013430000000     0.954090000000     0.194898   
H7       H      0.844790000000     0.903570000000     0.045910000000     0.133569   
H8       H      0.919110000000     0.880380000000     0.079370000000     0.188506   
H9       H      0.082500000000     0.944260000000     0.058670000000     0.132182   
H10      H      0.137620000000     0.984520000000     0.002430000000     0.193633   
H11      H      0.117340000000     0.057260000000     0.897090000000     0.130834   
H12      H      0.051850000000     0.082180000000     0.866780000000     0.189637   
H13      H      0.960410000000     0.869450000000     0.094280000000     0.204239   
H14      H      0.117340000000     0.949450000000     0.972800000000     0.205243   
H15      H      0.006790000000     0.085920000000     0.848870000000     0.204275   
H16      H      0.829490000000     0.986150000000     0.986680000000     0.208832   
H17      H      0.879920000000     0.913430000000     0.453530000000     0.1952     
H18      H      0.030600000000     0.047190000000     0.403720000000     0.191258   
H19      H      0.998200000000     0.032780000000     0.542340000000     0.194738   
H20      H      0.044680000000     0.926410000000     0.497470000000     0.198057   
H21      H      0.967530000000     0.056930000000     0.367910000000     0.132462   
H22      H      0.987070000000     0.112350000000     0.425470000000     0.203838   
H23      H      0.096530000000     0.108910000000     0.521750000000     0.132043   
H24      H      0.091030000000     0.056510000000     0.575570000000     0.190117   
H25      H      0.016330000000     0.901430000000     0.572970000000     0.139626   
H26      H      0.996430000000     0.847100000000     0.508730000000     0.192548   
H27      H      0.882000000000     0.837730000000     0.431960000000     0.130052   
H28      H      0.880480000000     0.900940000000     0.377610000000     0.187039   
H29      H      0.079030000000     0.017180000000     0.606310000000     0.206353   
H30      H      0.959110000000     0.840660000000     0.537160000000     0.195591   
H31      H      0.881700000000     0.938120000000     0.347710000000     0.20284    
H32      H      0.038580000000     0.128500000000     0.411800000000     0.196541   
H33      H      0.942500000000     0.431260000000     0.049640000000     0.206044   
H34      H      0.911610000000     0.442110000000     0.906890000000     0.193512   
H35      H      0.026750000000     0.582740000000     0.969800000000     0.196301   
H36      H      0.079020000000     0.466830000000     0.968380000000     0.207899   
H37      H      0.831160000000     0.415640000000     0.929830000000     0.132607   
H38      H      0.861680000000     0.498690000000     0.911190000000     0.201845   
H39      H      0.031420000000     0.600060000000     0.893670000000     0.13231    
H40      H      0.119130000000     0.624990000000     0.925130000000     0.191659   
H41      H      0.167950000000     0.565940000000     0.996840000000     0.140492   
H42      H      0.115000000000     0.479010000000     0.053620000000     0.205354   
H43      H      0.957680000000     0.352210000000     0.043270000000     0.133171   
H44      H      0.874430000000     0.335560000000     0.019670000000     0.191453   
H45      H      0.160220000000     0.626170000000     0.954030000000     0.195679   
H46      H      0.101360000000     0.429630000000     0.052570000000     0.204236   
H47      H      0.826340000000     0.337350000000     0.009500000000     0.202102   
H48      H      0.884650000000     0.519630000000     0.872390000000     0.203566   
H49      H      0.920920000000     0.459430000000     0.537740000000     0.202462   
H50      H      0.931350000000     0.450680000000     0.397030000000     0.190885   
H51      H      0.065040000000     0.581220000000     0.461540000000     0.19878    
H52      H      0.048630000000     0.428510000000     0.501600000000     0.202142   
H53      H      0.845860000000     0.442720000000     0.399290000000     0.134871   
H54      H      0.927260000000     0.545920000000     0.373930000000     0.210374   
H55      H      0.089900000000     0.589370000000     0.391780000000     0.128763   
H56      H      0.168170000000     0.579510000000     0.450220000000     0.191464   
H57      H      0.121960000000     0.500400000000     0.552100000000     0.139238   
H58      H      0.046410000000     0.401920000000     0.570760000000     0.197856   
H59      H      0.891220000000     0.373300000000     0.555350000000     0.130662   
H60      H      0.812940000000     0.380070000000     0.495920000000     0.195398   
H61      H      0.185770000000     0.564410000000     0.488850000000     0.199783   
H62      H      0.045600000000     0.433230000000     0.597860000000     0.201925   
H63      H      0.796870000000     0.406080000000     0.464260000000     0.198768   
H64      H      0.940360000000     0.522150000000     0.346780000000     0.199178   
H65      H      0.473700000000     0.930530000000     0.901540000000     0.191676   
H66      H      0.439810000000     0.913010000000     0.040370000000     0.198027   
H67      H      0.593230000000     0.045410000000     0.993330000000     0.198036   
H68      H      0.432290000000     0.038690000000     0.949500000000     0.201266   
H69      H      0.483980000000     0.855370000000     0.016990000000     0.143418   
H70      H      0.552070000000     0.910500000000     0.066040000000     0.201191   
H71      H      0.574720000000     0.048810000000     0.074370000000     0.133388   
H72      H      0.598260000000     0.112170000000     0.025780000000     0.187247   
H73      H      0.530530000000     0.118090000000     0.908850000000     0.140762   
H74      H      0.461380000000     0.069000000000     0.870170000000     0.200082   
H75      H      0.393460000000     0.916370000000     0.866570000000     0.124779   
H76      H      0.378800000000     0.852970000000     0.912730000000     0.18744    
H77      H      0.584510000000     0.146420000000     0.003840000000     0.202747   
H78      H      0.405260000000     0.042470000000     0.872530000000     0.200328   
H79      H      0.387240000000     0.817420000000     0.938350000000     0.201824   
H80      H      0.507520000000     0.902820000000     0.086790000000     0.197425   
H81      H      0.393970000000     0.958030000000     0.417930000000     0.195071   
H82      H      0.460020000000     0.972640000000     0.555770000000     0.206973   
H83      H      0.522260000000     0.909480000000     0.471550000000     0.197864   
H84      H      0.568670000000     0.071270000000     0.445500000000     0.196999   
H85      H      0.351800000000     0.908120000000     0.548570000000     0.131294   
H86      H      0.416780000000     0.880290000000     0.578320000000     0.187699   
H87      H      0.580390000000     0.937710000000     0.554340000000     0.141535   
H88      H      0.601580000000     0.936810000000     0.488730000000     0.192737   
H89      H      0.625510000000     0.049530000000     0.398010000000     0.132022   
H90      H      0.513240000000     0.090420000000     0.351240000000     0.201444   
H91      H      0.418610000000     0.062190000000     0.413360000000     0.144397   
H92      H      0.363970000000     0.019600000000     0.472940000000     0.201357   
H93      H      0.642440000000     0.970600000000     0.462770000000     0.207469   
H94      H      0.555470000000     0.081010000000     0.366730000000     0.187392   
H95      H      0.338620000000     0.982290000000     0.445370000000     0.196954   
H96      H      0.457640000000     0.869460000000     0.594980000000     0.202073   
H97      H      0.415420000000     0.461470000000     0.035910000000     0.203397   
H98      H      0.427860000000     0.453130000000     0.895850000000     0.19109    
H99      H      0.561860000000     0.582280000000     0.961220000000     0.199347   
H100     H      0.543270000000     0.429270000000     0.001230000000     0.206663   
H101     H      0.342750000000     0.447240000000     0.896960000000     0.131592   
H102     H      0.431390000000     0.558400000000     0.873250000000     0.208625   
H103     H      0.588370000000     0.587930000000     0.892170000000     0.129538   
H104     H      0.664310000000     0.581630000000     0.951780000000     0.192293   
H105     H      0.627000000000     0.507830000000     0.049270000000     0.135738   
H106     H      0.517800000000     0.390650000000     0.086880000000     0.202888   
H107     H      0.383750000000     0.374480000000     0.050570000000     0.131136   
H108     H      0.308860000000     0.383160000000     0.994500000000     0.19363    
H109     H      0.681300000000     0.564860000000     0.989850000000     0.19734    
H110     H      0.552880000000     0.441400000000     0.086410000000     0.199558   
H111     H      0.292260000000     0.406000000000     0.960280000000     0.196535   
H112     H      0.434360000000     0.526490000000     0.848070000000     0.199184   
H113     H      0.437440000000     0.429500000000     0.548430000000     0.191702   
H114     H      0.415780000000     0.443220000000     0.405250000000     0.196946   
H115     H      0.532630000000     0.581220000000     0.471030000000     0.1962     
H116     H      0.578150000000     0.460580000000     0.471780000000     0.206131   
H117     H      0.333710000000     0.426760000000     0.432740000000     0.130884   
H118     H      0.370650000000     0.508630000000     0.409560000000     0.197773   
H119     H      0.539260000000     0.600670000000     0.395760000000     0.129749   
H120     H      0.625760000000     0.620860000000     0.429540000000     0.190975   
H121     H      0.669450000000     0.557840000000     0.501050000000     0.141888   
H122     H      0.585130000000     0.422180000000     0.574780000000     0.20761    
H123     H      0.442720000000     0.359780000000     0.557970000000     0.133058   
H124     H      0.361460000000     0.328710000000     0.504900000000     0.20546    
H125     H      0.665450000000     0.619930000000     0.458910000000     0.196356   
H126     H      0.613520000000     0.461730000000     0.545480000000     0.201787   
H127     H      0.361980000000     0.353570000000     0.538430000000     0.19432    
H128     H      0.390240000000     0.512960000000     0.370240000000     0.200525   
H129     H      0.516630000000     0.415790000000     0.826510000000     0.0262993  
H130     H      0.542220000000     0.533270000000     0.636160000000     0.0260633  
H131     H      0.498850000000     0.517590000000     0.740950000000     0.0510615  
H132     H      0.549300000000     0.533790000000     0.699110000000     0.0529991  
H133     H      0.526070000000     0.415550000000     0.764530000000     0.0501149  
H134     H      0.487260000000     0.401400000000     0.709330000000     0.0533827  
H135     H      0.492700000000     0.518620000000     0.801920000000     0.0213532  
H136     H      0.459190000000     0.350780000000     0.665170000000     0.0336058  
H137     H      0.478270000000     0.550550000000     0.306590000000     0.0262733  
H138     H      0.523820000000     0.476740000000     0.140550000000     0.0194705  
H139     H      0.472210000000     0.439500000000     0.245530000000     0.0515281  
H140     H      0.524890000000     0.477500000000     0.202890000000     0.0521295  
H141     H      0.480950000000     0.558920000000     0.243020000000     0.050145   
H142     H      0.440930000000     0.535060000000     0.188200000000     0.0535219  
H143     H      0.472090000000     0.433130000000     0.308540000000     0.0268564  
H144     H      0.408740000000     0.557060000000     0.134280000000     0.0329422  
H145     H      0.434030000000     0.627440000000     0.428810000000     0.0266993  
H146     H      0.470220000000     0.799610000000     0.539800000000     0.0246772  
H147     H      0.422810000000     0.659720000000     0.547010000000     0.0496551  
H148     H      0.465360000000     0.733250000000     0.540670000000     0.0510071  
H149     H      0.422480000000     0.685100000000     0.434020000000     0.0506671  
H150     H      0.371850000000     0.705790000000     0.450330000000     0.0523685  
H151     H      0.435970000000     0.603110000000     0.541040000000     0.0284733  
H152     H      0.335770000000     0.743060000000     0.417630000000     0.0283388  
H153     H      0.599450000000     0.179620000000     0.496730000000     0.0248641  
H154     H      0.550850000000     0.357600000000     0.408600000000     0.0299592  
H155     H      0.525070000000     0.232490000000     0.403460000000     0.0495042  
H156     H      0.568460000000     0.304930000000     0.400320000000     0.049862   
H157     H      0.615560000000     0.250160000000     0.495800000000     0.0478142  
H158     H      0.568610000000     0.273670000000     0.512030000000     0.0540955  
H159     H      0.511900000000     0.163010000000     0.404000000000     0.0205327  
H160     H      0.560880000000     0.303400000000     0.561590000000     0.030667   
H161     H      0.559310000000     0.066380000000     0.627200000000     0.0261715  
H162     H      0.574840000000     0.977880000000     0.823720000000     0.0256066  
H163     H      0.538190000000     0.945680000000     0.708220000000     0.0494149  
H164     H      0.586470000000     0.979940000000     0.761970000000     0.0516351  
H165     H      0.563140000000     0.070920000000     0.690040000000     0.0500912  
H166     H      0.505420000000     0.039030000000     0.733650000000     0.0544684  
H167     H      0.534640000000     0.941960000000     0.645180000000     0.022902   
H168     H      0.473270000000     0.067340000000     0.768990000000     0.0321467  
H169     H      0.440600000000     0.018130000000     0.301490000000     0.0245974  
H170     H      0.487470000000     0.939510000000     0.144570000000     0.0210164  
H171     H      0.418250000000     0.893330000000     0.252580000000     0.0504854  
H172     H      0.477760000000     0.932960000000     0.206630000000     0.0517668  
H173     H      0.436540000000     0.016520000000     0.238290000000     0.0506244  
H174     H      0.384730000000     0.980240000000     0.186360000000     0.0531072  
H175     H      0.421880000000     0.895510000000     0.316070000000     0.0275222  
H176     H      0.359140000000     0.006630000000     0.131670000000     0.0327385  
H177     H      0.522230000000     0.672850000000     0.994560000000     0.0273644  
H178     H      0.471710000000     0.825800000000     0.895760000000     0.0166239  
H179     H      0.535230000000     0.735630000000     0.872510000000     0.0508491  
H180     H      0.476230000000     0.763430000000     0.894430000000     0.0510685  
H181     H      0.539510000000     0.744150000000     0.983780000000     0.0504781  
H182     H      0.608320000000     0.820620000000     0.946380000000     0.0525102  
H183     H      0.520520000000     0.664620000000     0.884040000000     0.0268204  
H184     H      0.656140000000     0.891840000000     0.965810000000     0.030997   
H185     H      0.448680000000     0.298770000000     0.061480000000     0.0229775  
H186     H      0.502000000000     0.138620000000     0.048450000000     0.0209735  
H187     H      0.438630000000     0.222830000000     0.961670000000     0.0514242  
H188     H      0.498260000000     0.201380000000     0.049750000000     0.0511854  
H189     H      0.434900000000     0.227900000000     0.072550000000     0.0501869  
H190     H      0.365270000000     0.144530000000     0.999470000000     0.0524639  
H191     H      0.454960000000     0.293910000000     0.951450000000     0.0275643  
H192     H      0.316410000000     0.073330000000     0.980790000000     0.0316857  
H193     H      0.660200000000     0.157450000000     0.521890000000     0.0259147  
H194     H      0.891780000000     0.291920000000     0.432800000000     0.0280286  
H195     H      0.771390000000     0.159470000000     0.448150000000     0.0493889  
H196     H      0.838950000000     0.223610000000     0.456930000000     0.0520371  
H197     H      0.723040000000     0.223100000000     0.502660000000     0.048976   
H198     H      0.733570000000     0.256860000000     0.442030000000     0.0544214  
H199     H      0.709290000000     0.094680000000     0.468560000000     0.0279885  
H200     H      0.733150000000     0.319510000000     0.411390000000     0.0326119  
H201     H      0.300830000000     0.805320000000     0.415910000000     0.0254669  
H202     H      0.191520000000     0.632430000000     0.518740000000     0.0203536  
H203     H      0.209670000000     0.799750000000     0.509960000000     0.0497822  
H204     H      0.240050000000     0.700190000000     0.492930000000     0.0507389  
H205     H      0.240130000000     0.738650000000     0.437280000000     0.048558   
H206     H      0.144370000000     0.738210000000     0.512130000000     0.0524999  
H207     H      0.268730000000     0.864380000000     0.487640000000     0.0312686  
H208     H      0.081840000000     0.704360000000     0.553870000000     0.0301796  
H209     H      0.795630000000     0.459280000000     0.511720000000     0.0205668  
H210     H      0.675100000000     0.575960000000     0.416640000000     0.0157445  
H211     H      0.821300000000     0.587100000000     0.439960000000     0.049601   
H212     H      0.746820000000     0.584870000000     0.442790000000     0.0479137  
H213     H      0.731990000000     0.463230000000     0.481290000000     0.0498674  
H214     H      0.711200000000     0.463890000000     0.416580000000     0.0533909  
H215     H      0.885150000000     0.582130000000     0.471450000000     0.0279951  
H216     H      0.646870000000     0.415020000000     0.379920000000     0.0303101  
H217     H      0.096330000000     0.392650000000     0.484240000000     0.0191318  
H218     H      0.358380000000     0.526170000000     0.542060000000     0.0268116  
H219     H      0.245120000000     0.517030000000     0.474290000000     0.0470421  
H220     H      0.287260000000     0.525100000000     0.525080000000     0.0491252  
H221     H      0.158170000000     0.395700000000     0.523080000000     0.0479886  
H222     H      0.220120000000     0.392140000000     0.533970000000     0.0552675  
H223     H      0.181000000000     0.513840000000     0.438400000000     0.0178911  
H224     H      0.247520000000     0.344390000000     0.562550000000     0.0357681  
H225     H      0.004830000000     0.455680000000     0.646090000000     0.0223141  
H226     H      0.986070000000     0.553270000000     0.806610000000     0.0253876  
H227     H      0.954530000000     0.546800000000     0.684550000000     0.0498324  
H228     H      0.990500000000     0.560580000000     0.743260000000     0.0514812  
H229     H      0.997650000000     0.455030000000     0.707490000000     0.0509529  
H230     H      0.936250000000     0.429560000000     0.743930000000     0.0547919  
H231     H      0.964070000000     0.548030000000     0.622220000000     0.0250037  
H232     H      0.906630000000     0.373740000000     0.791560000000     0.0344523  
H233     H      0.996110000000     0.404450000000     0.323700000000     0.0239597  
H234     H      0.978780000000     0.505840000000     0.139020000000     0.0264741  
H235     H      0.045420000000     0.533560000000     0.246940000000     0.0521497  
H236     H      0.981970000000     0.502720000000     0.201690000000     0.052039   
H237     H      0.998660000000     0.402940000000     0.260550000000     0.0486131  
H238     H      0.052240000000     0.433080000000     0.209080000000     0.0548619  
H239     H      0.042280000000     0.534220000000     0.309010000000     0.0294047  
H240     H      0.080410000000     0.411350000000     0.164640000000     0.0311328  
H241     H      0.695570000000     0.097420000000     0.902000000000     0.0268297  
H242     H      0.820370000000     0.342550000000     0.880250000000     0.0117939  
H243     H      0.713700000000     0.232890000000     0.920510000000     0.0491856  
H244     H      0.755640000000     0.275650000000     0.872600000000     0.0507198  
H245     H      0.766900000000     0.159710000000     0.887850000000     0.0489954  
H246     H      0.834980000000     0.218150000000     0.916070000000     0.0521113  
H247     H      0.644690000000     0.172230000000     0.933140000000     0.0227302  
H248     H      0.918020000000     0.249880000000     0.934030000000     0.032158   
H249     H      0.320170000000     0.793360000000     0.997340000000     0.0248448  
H250     H      0.071730000000     0.667630000000     0.030350000000     0.0197342  
H251     H      0.207730000000     0.801370000000     0.061820000000     0.0497785  
H252     H      0.133980000000     0.738590000000     0.031290000000     0.0506407  
H253     H      0.253230000000     0.731790000000     0.012810000000     0.048238   
H254     H      0.224850000000     0.692030000000     0.070500000000     0.0542321  
H255     H      0.277290000000     0.864840000000     0.045340000000     0.0266526  
H256     H      0.211020000000     0.620080000000     0.085930000000     0.0333004  
H257     H      0.677300000000     0.515480000000     0.941520000000     0.0191883  
H258     H      0.791820000000     0.388120000000     0.028010000000     0.0206643  
H259     H      0.655770000000     0.385380000000     0.006560000000     0.0484775  
H260     H      0.722890000000     0.385830000000     0.004940000000     0.0517528  
H261     H      0.741240000000     0.513930000000     0.974410000000     0.0484223  
H262     H      0.773020000000     0.509670000000     0.032130000000     0.0526867  
H263     H      0.593090000000     0.387910000000     0.972280000000     0.0236336  
H264     H      0.842460000000     0.554580000000     0.067270000000     0.030554   
H265     H      0.291000000000     0.462660000000     0.008560000000     0.0208936  
H266     H      0.172260000000     0.580990000000     0.914280000000     0.0149372  
H267     H      0.318840000000     0.591550000000     0.937670000000     0.0490724  
H268     H      0.243890000000     0.589590000000     0.940510000000     0.0475809  
H269     H      0.228080000000     0.467600000000     0.977820000000     0.0498246  
H270     H      0.208750000000     0.469390000000     0.912560000000     0.0532823  
H271     H      0.382030000000     0.585560000000     0.969430000000     0.0276438  
H272     H      0.144870000000     0.421300000000     0.875020000000     0.0300977  
H273     H      0.778020000000     0.860710000000     0.545100000000     0.0263964  
H274     H      0.577440000000     0.665110000000     0.530570000000     0.0195437  
H275     H      0.765430000000     0.727400000000     0.526250000000     0.0485207  
H276     H      0.640650000000     0.735310000000     0.532900000000     0.0499709  
H277     H      0.708560000000     0.796830000000     0.560430000000     0.0492929  
H278     H      0.727340000000     0.685690000000     0.576900000000     0.0535854  
H279     H      0.832470000000     0.789480000000     0.512360000000     0.0296495  
H280     H      0.711180000000     0.613170000000     0.592460000000     0.033325   
H281     H      0.147700000000     0.170680000000     0.439110000000     0.0264116  
H282     H      0.401820000000     0.289890000000     0.418860000000     0.023101   
H283     H      0.267470000000     0.159430000000     0.388170000000     0.0490331  
H284     H      0.337360000000     0.220240000000     0.417140000000     0.0505516  
H285     H      0.215950000000     0.231800000000     0.424880000000     0.0526391  
H286     H      0.253080000000     0.271940000000     0.371920000000     0.054959   
H287     H      0.196940000000     0.096800000000     0.403460000000     0.0257971  
H288     H      0.271370000000     0.344840000000     0.354720000000     0.0362643  
H289     H      0.605450000000     0.979280000000     0.362470000000     0.0217598  
H290     H      0.771230000000     0.932610000000     0.483630000000     0.0277614  
H291     H      0.619780000000     0.867380000000     0.435170000000     0.0486585  
H292     H      0.693530000000     0.915340000000     0.468900000000     0.0477682  
H293     H      0.678330000000     0.982570000000     0.370760000000     0.0523757  
H294     H      0.722630000000     0.951230000000     0.360130000000     0.0529162  
H295     H      0.546330000000     0.865300000000     0.426210000000     0.0202513  
H296     H      0.792250000000     0.983820000000     0.329660000000     0.0299092  
H297     H      0.429670000000     0.103560000000     0.505450000000     0.0228695  
H298     H      0.203920000000     0.032180000000     0.461690000000     0.028211   
H299     H      0.306300000000     0.015620000000     0.584350000000     0.0522196  
H300     H      0.282960000000     0.055020000000     0.474870000000     0.0483893  
H301     H      0.360320000000     0.108940000000     0.498140000000     0.0482998  
H302     H      0.265430000000     0.052860000000     0.584190000000     0.0531497  
H303     H      0.374710000000     0.010780000000     0.590070000000     0.0227512  
H304     H      0.200450000000     0.033460000000     0.617280000000     0.0300398  
H305     H      0.960660000000     0.821240000000     0.400490000000     0.0280869  
H306     H      0.030270000000     0.671470000000     0.494090000000     0.0293344  
H307     H      0.099070000000     0.816630000000     0.446730000000     0.0496337  
H308     H      0.043100000000     0.741180000000     0.485260000000     0.0493721  
H309     H      0.963040000000     0.757560000000     0.401290000000     0.051005   
H310     H      0.012220000000     0.728860000000     0.374700000000     0.0546665  
H311     H      0.096320000000     0.881210000000     0.444400000000     0.0225738  
H312     H      0.989490000000     0.671470000000     0.338710000000     0.0313644  
H313     H      0.948660000000     0.296060000000     0.562090000000     0.0263175  
H314     H      0.999760000000     0.134160000000     0.550520000000     0.022      
H315     H      0.942290000000     0.220850000000     0.462960000000     0.0509704  
H316     H      0.996610000000     0.197180000000     0.552280000000     0.0524608  
H317     H      0.932630000000     0.224550000000     0.573130000000     0.0505898  
H318     H      0.865390000000     0.142640000000     0.498800000000     0.0530933  
H319     H      0.960890000000     0.292490000000     0.452850000000     0.027457   
H320     H      0.816660000000     0.071790000000     0.478740000000     0.032734   
H321     H      0.937290000000     0.015540000000     0.801040000000     0.0247016  
H322     H      0.897040000000     0.981010000000     0.622690000000     0.0253004  
H323     H      0.913500000000     0.888320000000     0.755850000000     0.0504362  
H324     H      0.885750000000     0.977850000000     0.684690000000     0.0513897  
H325     H      0.933330000000     0.011980000000     0.738010000000     0.0498383  
H326     H      0.969010000000     0.920710000000     0.711150000000     0.05347    
H327     H      0.917860000000     0.892770000000     0.818810000000     0.0272288  
H328     H      0.001440000000     0.893570000000     0.674910000000     0.0350792  
H329     H      0.970560000000     0.004550000000     0.299170000000     0.023721   
H330     H      0.034310000000     0.058170000000     0.129180000000     0.0284602  
H331     H      0.101460000000     0.999470000000     0.261840000000     0.0483554  
H332     H      0.036620000000     0.060750000000     0.192060000000     0.0525676  
H333     H      0.981810000000     0.011450000000     0.237320000000     0.0474172  
H334     H      0.060470000000     0.957270000000     0.209490000000     0.0543765  
H335     H      0.089640000000     0.993050000000     0.324530000000     0.0266238  
H336     H      0.076220000000     0.920680000000     0.168680000000     0.0332107  
H337     H      0.587060000000     0.669620000000     0.020900000000     0.0280203  
H338     H      0.820750000000     0.797630000000     0.932350000000     0.0249906  
H339     H      0.743620000000     0.699560000000     0.011860000000     0.0480827  
H340     H      0.760700000000     0.733270000000     0.955970000000     0.0488186  
H341     H      0.640500000000     0.736470000000     0.995930000000     0.0492332  
H342     H      0.701000000000     0.798970000000     0.992730000000     0.0530626  
H343     H      0.687580000000     0.631660000000     0.033410000000     0.017907   
H344     H      0.715060000000     0.870140000000     0.976360000000     0.0305207  
H345     H      0.386580000000     0.293890000000     0.929410000000     0.0281474  
H346     H      0.153690000000     0.162490000000     0.018590000000     0.0252274  
H347     H      0.230010000000     0.262460000000     0.941180000000     0.0496245  
H348     H      0.214500000000     0.227560000000     0.997030000000     0.0497681  
H349     H      0.333680000000     0.226240000000     0.953890000000     0.0499666  
H350     H      0.272410000000     0.163450000000     0.954950000000     0.0539054  
H351     H      0.285370000000     0.330820000000     0.920160000000     0.0170904  
H352     H      0.256680000000     0.091470000000     0.967190000000     0.0328588  
H353     H      0.697960000000     0.016290000000     0.961160000000     0.0283711  
H354     H      0.920700000000     0.088190000000     0.018260000000     0.0167163  
H355     H      0.745800000000     0.011660000000     0.087030000000     0.0501813  
H356     H      0.847500000000     0.085410000000     0.008810000000     0.0492157  
H357     H      0.775240000000     0.032280000000     0.977620000000     0.0463735  
H358     H      0.791760000000     0.978170000000     0.082360000000     0.05445    
H359     H      0.668670000000     0.995740000000     0.069940000000     0.026186   
H360     H      0.829060000000     0.944570000000     0.122350000000     0.0330867  
H361     H      0.269620000000     0.935520000000     0.982450000000     0.0284486  
H362     H      0.047070000000     0.859590000000     0.935700000000     0.0266749  
H363     H      0.215420000000     0.915320000000     0.858090000000     0.0496703  
H364     H      0.116840000000     0.855670000000     0.942400000000     0.0511158  
H365     H      0.190460000000     0.911720000000     0.966570000000     0.0482351  
H366     H      0.168560000000     0.947700000000     0.855320000000     0.0551678  
H367     H      0.294590000000     0.939560000000     0.874620000000     0.0277233  
H368     H      0.131120000000     0.981000000000     0.814390000000     0.0348066  
H369     H      0.934830000000     0.604890000000     0.041900000000     0.0289749  
H370     H      0.884510000000     0.781080000000     0.951740000000     0.0244644  
H371     H      0.908190000000     0.679200000000     0.934640000000     0.0506795  
H372     H      0.868600000000     0.710890000000     0.952350000000     0.0492116  
H373     H      0.920250000000     0.660340000000     0.047880000000     0.0486282  
H374     H      0.968150000000     0.730780000000     0.037840000000     0.0525184  
H375     H      0.918890000000     0.620930000000     0.929590000000     0.0269422  
H376     H      0.018210000000     0.790010000000     0.070220000000     0.0306123  
H377     H      0.050900000000     0.334280000000     0.017750000000     0.0236469  
H378     H      0.091110000000     0.179110000000     0.996830000000     0.0260494  
H379     H      0.068010000000     0.307120000000     0.899310000000     0.0491704  
H380     H      0.107330000000     0.249100000000     0.997180000000     0.0494289  
H381     H      0.063430000000     0.277380000000     0.011850000000     0.0503092  
H382     H      0.022470000000     0.236290000000     0.902710000000     0.0542944  
H383     H      0.052360000000     0.361960000000     0.905910000000     0.0300573  
H384     H      0.982180000000     0.181360000000     0.863840000000     0.0316269  
N1       N      0.511720000000     0.467620000000     0.636060000000    -0.199226   
N2       N      0.504750000000     0.467540000000     0.818890000000    -0.194907   
N3       N      0.481830000000     0.505130000000     0.127680000000    -0.198174   
N4       N      0.476090000000     0.491710000000     0.312340000000    -0.194247   
N5       N      0.427000000000     0.793130000000     0.492900000000    -0.196187   
N6       N      0.437110000000     0.611680000000     0.484500000000    -0.193627   
N7       N      0.548920000000     0.346820000000     0.465200000000    -0.195328   
N8       N      0.552590000000     0.165610000000     0.451560000000    -0.194393   
N9       N      0.532530000000     0.006160000000     0.814720000000    -0.192999   
N10      N      0.545430000000     0.003480000000     0.631170000000    -0.188347   
N11      N      0.442210000000     0.964030000000     0.128430000000    -0.192803   
N12      N      0.432430000000     0.957230000000     0.313780000000    -0.189337   
N13      N      0.536880000000     0.859460000000     0.921920000000    -0.195105   
N14      N      0.520300000000     0.663100000000     0.940190000000    -0.188166   
N15      N      0.436370000000     0.104980000000     0.022890000000    -0.192965   
N16      N      0.452740000000     0.302000000000     0.005590000000    -0.188098   
N17      N      0.844700000000     0.314840000000     0.427750000000    -0.199363   
N18      N      0.678500000000     0.121560000000     0.494620000000    -0.192867   
N19      N      0.137570000000     0.644440000000     0.526510000000    -0.197771   
N20      N      0.292570000000     0.838620000000     0.453250000000    -0.192973   
N21      N      0.649040000000     0.512920000000     0.405860000000    -0.199034   
N22      N      0.845160000000     0.519640000000     0.492240000000    -0.193971   
N23      N      0.330210000000     0.460610000000     0.545620000000    -0.197223   
N24      N      0.134020000000     0.453370000000     0.459100000000    -0.197926   
N25      N      0.962230000000     0.488090000000     0.811980000000    -0.198597   
N26      N      0.983560000000     0.500960000000     0.629420000000    -0.193381   
N27      N      0.013770000000     0.471420000000     0.136240000000    -0.194398   
N28      N      0.017280000000     0.469030000000     0.320880000000    -0.193464   
N29      N      0.864850000000     0.319450000000     0.902020000000    -0.196148   
N30      N      0.664510000000     0.129760000000     0.918710000000    -0.189314   
N31      N      0.113450000000     0.640030000000     0.047040000000    -0.196546   
N32      N      0.304620000000     0.834210000000     0.020610000000    -0.188519   
N33      N      0.825560000000     0.451960000000     0.039040000000    -0.196596   
N34      N      0.630320000000     0.452180000000     0.955320000000    -0.196717   
N35      N      0.146500000000     0.518320000000     0.902500000000    -0.199003   
N36      N      0.341270000000     0.522980000000     0.989660000000    -0.193617   
N37      N      0.617180000000     0.636000000000     0.549250000000    -0.196708   
N38      N      0.810770000000     0.830310000000     0.527580000000    -0.188534   
N39      N      0.363440000000     0.320080000000     0.399280000000    -0.196437   
N40      N      0.166640000000     0.128680000000     0.422280000000    -0.189263   
N41      N      0.793250000000     0.952890000000     0.430740000000    -0.191985   
N42      N      0.571250000000     0.922950000000     0.394890000000    -0.19688    
N43      N      0.186950000000     0.026990000000     0.515310000000    -0.1914     
N44      N      0.405940000000     0.055600000000     0.547240000000    -0.194537   
N45      N      0.015230000000     0.658810000000     0.439670000000    -0.189834   
N46      N      0.028030000000     0.855860000000     0.423070000000    -0.190359   
N47      N      0.934890000000     0.101750000000     0.523610000000    -0.193948   
N48      N      0.955730000000     0.299940000000     0.506570000000    -0.187983   
N49      N      0.940410000000     0.953820000000     0.630730000000    -0.193779   
N50      N      0.929030000000     0.954820000000     0.814950000000    -0.18877    
N51      N      0.044140000000     0.005300000000     0.132220000000    -0.193229   
N52      N      0.029100000000     0.997980000000     0.316830000000    -0.188526   
N53      N      0.796910000000     0.835150000000     0.950470000000    -0.198018   
N54      N      0.632660000000     0.645030000000     0.025930000000    -0.193959   
N55      N      0.176450000000     0.125770000000     0.997510000000    -0.198632   
N56      N      0.340520000000     0.317790000000     0.925910000000    -0.195233   
N57      N      0.897740000000     0.033690000000     0.053890000000    -0.20161    
N58      N      0.677240000000     0.004700000000     0.014230000000    -0.189486   
N59      N      0.069460000000     0.907650000000     0.893890000000    -0.197855   
N60      N      0.288460000000     0.940070000000     0.929740000000    -0.189867   
N61      N      0.935930000000     0.797200000000     0.993980000000    -0.19648    
N62      N      0.929020000000     0.609320000000     0.985260000000    -0.193081   
N63      N      0.046030000000     0.166010000000     0.950400000000    -0.19743    
N64      N      0.049120000000     0.351430000000     0.962220000000    -0.193564   
O1       O      0.128200000000     0.064360000000     0.976480000000    -0.38289    
O2       O      0.103260000000     0.089320000000     0.014480000000    -0.372724   
O3       O      0.949070000000     0.994610000000     0.861480000000    -0.370612   
O4       O      0.934940000000     0.928270000000     0.871600000000    -0.374011   
O5       O      0.012480000000     0.102010000000     0.929430000000    -0.376834   
O6       O      0.039020000000     0.109960000000     0.986240000000    -0.371421   
O7       O      0.066500000000     0.963270000000     0.906040000000    -0.384718   
O8       O      0.004990000000     0.901070000000     0.914610000000    -0.355217   
O9       O      0.130130000000     0.042630000000     0.913680000000    -0.32537    
O10      O      0.118010000000     0.972590000000     0.982100000000    -0.527615   
O11      O      0.020580000000     0.075130000000     0.867490000000    -0.518796   
O12      O      0.914640000000     0.043920000000     0.896480000000    -0.353116   
O13      O      0.042170000000     0.046680000000     0.953950000000    -0.494919   
O14      O      0.007460000000     0.986050000000     0.914860000000    -0.637236   
O15      O      0.966330000000     0.860390000000     0.015650000000    -0.371875   
O16      O      0.936420000000     0.851690000000     0.959630000000    -0.370044   
O17      O      0.927110000000     0.991850000000     0.048760000000    -0.348809   
O18      O      0.970860000000     0.058230000000     0.038630000000    -0.366443   
O19      O      0.844600000000     0.897400000000     0.970170000000    -0.383143   
O20      O      0.870070000000     0.871600000000     0.933320000000    -0.368755   
O21      O      0.021630000000     0.965540000000     0.085470000000    -0.371267   
O22      O      0.038280000000     0.032430000000     0.075700000000    -0.367859   
O23      O      0.948990000000     0.884160000000     0.077520000000    -0.520334   
O24      O      0.057690000000     0.917560000000     0.051390000000    -0.342649   
O25      O      0.837380000000     0.922790000000     0.030190000000    -0.33958    
O26      O      0.856050000000     0.993610000000     0.974360000000    -0.536483   
O27      O      0.929750000000     0.914270000000     0.993260000000    -0.627807   
O28      O      0.965480000000     0.975530000000     0.032160000000    -0.466586   
O29      O      0.015910000000     0.933950000000     0.973510000000    -0.48999    
O30      O      0.956620000000     0.027830000000     0.973440000000    -0.626577   
O31      O      0.052750000000     0.997210000000     0.012960000000    -0.634567   
O32      O      0.919750000000     0.963880000000     0.934530000000    -0.49451    
O33      O      0.982720000000     0.883790000000     0.427800000000    -0.36452    
O34      O      0.057520000000     0.924660000000     0.433460000000    -0.368029   
O35      O      0.863920000000     0.967500000000     0.416810000000    -0.368578   
O36      O      0.849450000000     0.962170000000     0.473940000000    -0.364338   
O37      O      0.983600000000     0.990110000000     0.359870000000    -0.381654   
O38      O      0.051130000000     0.992550000000     0.375660000000    -0.367446   
O39      O      0.878600000000     0.860410000000     0.502620000000    -0.37947    
O40      O      0.856110000000     0.901470000000     0.522830000000    -0.35862    
O41      O      0.898070000000     0.830370000000     0.452230000000    -0.333955   
O42      O      0.973770000000     0.853020000000     0.515300000000    -0.534607   
O43      O      0.891080000000     0.929790000000     0.370550000000    -0.52002    
O44      O      0.936000000000     0.037020000000     0.373540000000    -0.343955   
O45      O      0.978950000000     0.942330000000     0.425440000000    -0.481335   
O46      O      0.911080000000     0.932750000000     0.459230000000    -0.628463   
O47      O      0.987490000000     0.963400000000     0.588050000000    -0.375143   
O48      O      0.922170000000     0.964940000000     0.572030000000    -0.368897   
O49      O      0.098810000000     0.099770000000     0.447260000000    -0.380189   
O50      O      0.118990000000     0.058040000000     0.425140000000    -0.359088   
O51      O      0.984210000000     0.087070000000     0.502830000000    -0.379946   
O52      O      0.915180000000     0.033980000000     0.516650000000    -0.357177   
O53      O      0.114210000000     0.005390000000     0.529940000000    -0.360972   
O54      O      0.127380000000     0.004720000000     0.473610000000    -0.362125   
O55      O      0.076510000000     0.027240000000     0.582150000000    -0.52293    
O56      O      0.046800000000     0.925680000000     0.571340000000    -0.351051   
O57      O      0.077540000000     0.119680000000     0.508200000000    -0.337313   
O58      O      0.014970000000     0.111220000000     0.427670000000    -0.530443   
O59      O      0.995820000000     0.018020000000     0.522590000000    -0.630004   
O60      O      0.063280000000     0.026460000000     0.488690000000    -0.496666   
O61      O      0.957540000000     0.932370000000     0.524100000000    -0.495807   
O62      O      0.017450000000     0.027830000000     0.423760000000    -0.627632   
O63      O      0.027820000000     0.941040000000     0.491230000000    -0.624699   
O64      O      0.948110000000     0.019170000000     0.457430000000    -0.493423   
O65      O      0.034780000000     0.389230000000     0.996300000000    -0.381211   
O66      O      0.024670000000     0.395710000000     0.936790000000    -0.369468   
O67      O      0.870740000000     0.424860000000     0.031700000000    -0.385214   
O68      O      0.903230000000     0.492240000000     0.038150000000    -0.352238   
O69      O      0.876430000000     0.367230000000     0.937970000000    -0.386638   
O70      O      0.935570000000     0.375620000000     0.909050000000    -0.35907    
O71      O      0.019850000000     0.451970000000     0.083440000000    -0.371718   
O72      O      0.995250000000     0.498120000000     0.083940000000    -0.38503    
O73      O      0.983230000000     0.370520000000     0.058700000000    -0.345082   
O74      O      0.093370000000     0.451310000000     0.048020000000    -0.526502   
O75      O      0.858780000000     0.350160000000     0.008950000000    -0.520046   
O76      O      0.830720000000     0.416490000000     0.955470000000    -0.352032   
O77      O      0.962930000000     0.407460000000     0.977650000000    -0.50531    
O78      O      0.955360000000     0.444530000000     0.027350000000    -0.633181   
O79      O      0.101530000000     0.592420000000     0.010720000000    -0.383058   
O80      O      0.042520000000     0.584290000000     0.039660000000    -0.363314   
O81      O      0.963120000000     0.512740000000     0.863650000000    -0.379973   
O82      O      0.977910000000     0.459720000000     0.863950000000    -0.377092   
O83      O      0.941360000000     0.570060000000     0.951330000000    -0.372949   
O84      O      0.955230000000     0.566300000000     0.010570000000    -0.36942    
O85      O      0.092470000000     0.536460000000     0.908290000000    -0.361457   
O86      O      0.070480000000     0.471650000000     0.900550000000    -0.357889   
O87      O      0.129590000000     0.611710000000     0.944190000000    -0.525942   
O88      O      0.146570000000     0.538390000000     0.988830000000    -0.365742   
O89      O      0.999260000000     0.593080000000     0.891720000000    -0.344728   
O90      O      0.887760000000     0.511780000000     0.897100000000    -0.530468   
O91      O      0.016570000000     0.553630000000     0.970060000000    -0.632227   
O92      O      0.023810000000     0.516260000000     0.920410000000    -0.477157   
O93      O      0.045460000000     0.508060000000     0.020960000000    -0.495923   
O94      O      0.933120000000     0.453490000000     0.926430000000    -0.634333   
O95      O      0.053840000000     0.471270000000     0.970730000000    -0.629068   
O96      O      0.925560000000     0.489690000000     0.976380000000    -0.492746   
O97      O      0.966000000000     0.360090000000     0.526020000000    -0.368565   
O98      O      0.974950000000     0.357900000000     0.468650000000    -0.359072   
O99      O      0.871760000000     0.474400000000     0.502800000000    -0.387305   
O100     O      0.921540000000     0.541520000000     0.501620000000    -0.358459   
O101     O      0.866670000000     0.378310000000     0.443610000000    -0.382034   
O102     O      0.918130000000     0.365910000000     0.422850000000    -0.369626   
O103     O      0.985720000000     0.466170000000     0.585980000000    -0.381366   
O104     O      0.982810000000     0.525720000000     0.571550000000    -0.37973    
O105     O      0.918160000000     0.381400000000     0.571830000000    -0.341635   
O106     O      0.034910000000     0.419390000000     0.576410000000    -0.527807   
O107     O      0.820450000000     0.401860000000     0.477200000000    -0.514369   
O108     O      0.862750000000     0.467570000000     0.412490000000    -0.356739   
O109     O      0.937770000000     0.409840000000     0.482890000000    -0.49733    
O110     O      0.939550000000     0.465040000000     0.518380000000    -0.624171   
O111     O      0.115630000000     0.580130000000     0.512070000000    -0.388724   
O112     O      0.062940000000     0.594540000000     0.527180000000    -0.365455   
O113     O      0.013480000000     0.502910000000     0.364350000000    -0.379756   
O114     O      0.000010000000     0.437000000000     0.376590000000    -0.375051   
O115     O      0.007850000000     0.598830000000     0.421570000000    -0.362594   
O116     O      0.004450000000     0.603480000000     0.479300000000    -0.354484   
O117     O      0.097310000000     0.488750000000     0.436520000000    -0.357452   
O118     O      0.059190000000     0.421340000000     0.439990000000    -0.36314    
O119     O      0.161500000000     0.562360000000     0.472140000000    -0.521808   
O120     O      0.122740000000     0.489540000000     0.530100000000    -0.363093   
O121     O      0.062040000000     0.586870000000     0.378730000000    -0.333903   
O122     O      0.945140000000     0.533760000000     0.368980000000    -0.527765   
O123     O      0.044400000000     0.552160000000     0.465520000000    -0.633237   
O124     O      0.042490000000     0.496440000000     0.431070000000    -0.464881   
O125     O      0.033100000000     0.501370000000     0.528870000000    -0.492848   
O126     O      0.948070000000     0.460250000000     0.419010000000    -0.626074   
O127     O      0.033030000000     0.444080000000     0.494240000000    -0.628569   
O128     O      0.948710000000     0.517480000000     0.454310000000    -0.492772   
O129     O      0.360240000000     0.960820000000     0.914450000000    -0.369137   
O130     O      0.347450000000     0.960750000000     0.971360000000    -0.36443    
O131     O      0.487030000000     0.874450000000     0.941460000000    -0.387057   
O132     O      0.556510000000     0.927170000000     0.928500000000    -0.360363   
O133     O      0.372020000000     0.863210000000     0.995240000000    -0.373646   
O134     O      0.353530000000     0.904810000000     0.019430000000    -0.355996   
O135     O      0.485860000000     0.998360000000     0.857110000000    -0.369814   
O136     O      0.550680000000     0.996080000000     0.873570000000    -0.370718   
O137     O      0.394420000000     0.943190000000     0.859750000000    -0.333587   
O138     O      0.434510000000     0.044080000000     0.877240000000    -0.531496   
O139     O      0.393600000000     0.845640000000     0.933070000000    -0.520854   
O140     O      0.451400000000     0.846930000000     0.014640000000    -0.353748   
O141     O      0.409520000000     0.937530000000     0.955370000000    -0.494935   
O142     O      0.476270000000     0.945040000000     0.921520000000    -0.631158   
O143     O      0.596660000000     0.101510000000     0.943440000000    -0.382977   
O144     O      0.617330000000     0.058960000000     0.923490000000    -0.359339   
O145     O      0.488070000000     0.970010000000     0.086130000000    -0.377063   
O146     O      0.421920000000     0.969540000000     0.069180000000    -0.366239   
O147     O      0.607160000000     0.989810000000     0.029330000000    -0.373488   
O148     O      0.621460000000     0.996860000000     0.971630000000    -0.366637   
O149     O      0.486080000000     0.088880000000     0.004440000000    -0.373877   
O150     O      0.415180000000     0.037080000000     0.014600000000    -0.361571   
O151     O      0.580150000000     0.118710000000     0.007700000000    -0.52135    
O152     O      0.515320000000     0.116510000000     0.930000000000    -0.354558   
O153     O      0.581950000000     0.025960000000     0.077770000000    -0.339856   
O154     O      0.530130000000     0.918680000000     0.069800000000    -0.530157   
O155     O      0.561910000000     0.026720000000     0.987480000000    -0.632118   
O156     O      0.494780000000     0.018650000000     0.020940000000    -0.496218   
O157     O      0.517350000000     0.030940000000     0.921920000000    -0.497022   
O158     O      0.453690000000     0.932740000000     0.020690000000    -0.628664   
O159     O      0.448010000000     0.022960000000     0.955270000000    -0.627845   
O160     O      0.522630000000     0.940830000000     0.987150000000    -0.498277   
O161     O      0.514380000000     0.102040000000     0.430350000000    -0.381095   
O162     O      0.546500000000     0.109350000000     0.486030000000    -0.370309   
O163     O      0.343960000000     0.900200000000     0.471940000000    -0.390324   
O164     O      0.364920000000     0.872320000000     0.433510000000    -0.367775   
O165     O      0.413980000000     0.000490000000     0.542450000000    -0.387912   
O166     O      0.472010000000     0.062560000000     0.528700000000    -0.355259   
O167     O      0.454280000000     0.996130000000     0.360880000000    -0.368178   
O168     O      0.433400000000     0.928070000000     0.370320000000    -0.367994   
O169     O      0.417960000000     0.044590000000     0.395830000000    -0.357592   
O170     O      0.525270000000     0.076550000000     0.368390000000    -0.51936    
O171     O      0.360090000000     0.994640000000     0.464700000000    -0.530536   
O172     O      0.342330000000     0.925510000000     0.532210000000    -0.329297   
O173     O      0.460300000000     0.028770000000     0.473100000000    -0.49515    
O174     O      0.420430000000     0.965070000000     0.433670000000    -0.630651   
O175     O      0.541180000000     0.964590000000     0.397950000000    -0.34836    
O176     O      0.497170000000     0.898500000000     0.408120000000    -0.356988   
O177     O      0.524000000000     0.963500000000     0.584550000000    -0.375981   
O178     O      0.540130000000     0.030510000000     0.574670000000    -0.376002   
O179     O      0.459210000000     0.856020000000     0.515580000000    -0.371997   
O180     O      0.431280000000     0.849380000000     0.458930000000    -0.368487   
O181     O      0.629820000000     0.058920000000     0.475650000000    -0.384212   
O182     O      0.605950000000     0.085970000000     0.512770000000    -0.367382   
O183     O      0.613140000000     0.960560000000     0.471830000000    -0.537078   
O184     O      0.634230000000     0.032620000000     0.415680000000    -0.343898   
O185     O      0.553450000000     0.910810000000     0.550260000000    -0.360429   
O186     O      0.446600000000     0.883610000000     0.577230000000    -0.521833   
O187     O      0.512910000000     0.929860000000     0.472430000000    -0.624234   
O188     O      0.552650000000     0.993400000000     0.511690000000    -0.500802   
O189     O      0.506310000000     0.983190000000     0.414480000000    -0.458474   
O190     O      0.466740000000     0.974470000000     0.531640000000    -0.636744   
O191     O      0.544950000000     0.044350000000     0.453110000000    -0.628752   
O192     O      0.428490000000     0.913940000000     0.492480000000    -0.493254   
O193     O      0.462080000000     0.361830000000     0.025090000000    -0.369749   
O194     O      0.470600000000     0.359730000000     0.967610000000    -0.357871   
O195     O      0.366950000000     0.477060000000     0.000230000000    -0.387625   
O196     O      0.417470000000     0.543970000000     0.999400000000    -0.358103   
O197     O      0.361860000000     0.381880000000     0.939560000000    -0.387235   
O198     O      0.414180000000     0.368130000000     0.922140000000    -0.370416   
O199     O      0.481360000000     0.468410000000     0.084790000000    -0.376224   
O200     O      0.478130000000     0.527700000000     0.069670000000    -0.379539   
O201     O      0.409420000000     0.383020000000     0.068330000000    -0.345218   
O202     O      0.525340000000     0.418470000000     0.077950000000    -0.527322   
O203     O      0.316120000000     0.403590000000     0.974650000000    -0.514754   
O204     O      0.359750000000     0.471740000000     0.910570000000    -0.354511   
O205     O      0.432790000000     0.411850000000     0.981370000000    -0.499047   
O206     O      0.434270000000     0.466800000000     0.016780000000    -0.626003   
O207     O      0.611610000000     0.580640000000     0.012950000000    -0.387401   
O208     O      0.558270000000     0.595810000000     0.025820000000    -0.367385   
O209     O      0.501990000000     0.501910000000     0.862230000000    -0.384343   
O210     O      0.496230000000     0.438730000000     0.875930000000    -0.377131   
O211     O      0.509020000000     0.602650000000     0.920870000000    -0.370116   
O212     O      0.503490000000     0.605990000000     0.978710000000    -0.358414   
O213     O      0.595270000000     0.490430000000     0.937080000000    -0.359984   
O214     O      0.554610000000     0.422880000000     0.939050000000    -0.367243   
O215     O      0.657270000000     0.563610000000     0.973220000000    -0.521048   
O216     O      0.617120000000     0.489250000000     0.030130000000    -0.36632    
O217     O      0.561380000000     0.585740000000     0.877840000000    -0.335289   
O218     O      0.443980000000     0.541270000000     0.869000000000    -0.52428    
O219     O      0.540620000000     0.553340000000     0.964890000000    -0.636174   
O220     O      0.538950000000     0.498280000000     0.930490000000    -0.468566   
O221     O      0.527800000000     0.502360000000     0.028100000000    -0.494758   
O222     O      0.444580000000     0.462700000000     0.917830000000    -0.626268   
O223     O      0.527930000000     0.445090000000     0.993880000000    -0.631276   
O224     O      0.444810000000     0.519990000000     0.952540000000    -0.492788   
O225     O      0.533470000000     0.385340000000     0.498040000000    -0.370475   
O226     O      0.523430000000     0.390390000000     0.438820000000    -0.37051    
O227     O      0.362310000000     0.433100000000     0.517760000000    -0.379799   
O228     O      0.407520000000     0.493470000000     0.542140000000    -0.361469   
O229     O      0.375660000000     0.369100000000     0.434090000000    -0.380927   
O230     O      0.435430000000     0.373580000000     0.408900000000    -0.361596   
O231     O      0.512860000000     0.444070000000     0.584520000000    -0.381187   
O232     O      0.498610000000     0.497460000000     0.583950000000    -0.381632   
O233     O      0.472690000000     0.362620000000     0.555280000000    -0.337583   
O234     O      0.585240000000     0.440130000000     0.554290000000    -0.523568   
O235     O      0.368070000000     0.353970000000     0.514330000000    -0.53045    
O236     O      0.327130000000     0.405170000000     0.452450000000    -0.327882   
O237     O      0.461080000000     0.403920000000     0.477330000000    -0.502379   
O238     O      0.452950000000     0.442370000000     0.526990000000    -0.634838   
O239     O      0.605160000000     0.587250000000     0.514120000000    -0.382548   
O240     O      0.545520000000     0.581950000000     0.540120000000    -0.364328   
O241     O      0.473140000000     0.514250000000     0.364100000000    -0.379554   
O242     O      0.484720000000     0.459310000000     0.364600000000    -0.381558   
O243     O      0.449600000000     0.572260000000     0.450750000000    -0.375344   
O244     O      0.459060000000     0.565870000000     0.510260000000    -0.372396   
O245     O      0.595340000000     0.531540000000     0.411350000000    -0.359879   
O246     O      0.572820000000     0.466660000000     0.403630000000    -0.359534   
O247     O      0.634990000000     0.606570000000     0.448570000000    -0.525731   
O248     O      0.647680000000     0.530870000000     0.492150000000    -0.369587   
O249     O      0.507060000000     0.593370000000     0.391900000000    -0.340418   
O250     O      0.394910000000     0.513420000000     0.395530000000    -0.532949   
O251     O      0.521230000000     0.551920000000     0.471160000000    -0.63453    
O252     O      0.528100000000     0.513460000000     0.422270000000    -0.475754   
O253     O      0.545240000000     0.503030000000     0.522960000000    -0.495631   
O254     O      0.436530000000     0.453520000000     0.425400000000    -0.636105   
O255     O      0.553420000000     0.465900000000     0.473350000000    -0.630189   
O256     O      0.429060000000     0.490050000000     0.475220000000    -0.500264   
S1       S      0.471220000000     0.382330000000     0.639100000000    -0.0506395  
S2       S      0.428070000000     0.542520000000     0.114390000000    -0.0432358  
S3       S      0.362130000000     0.775870000000     0.437240000000    -0.0343882  
S4       S      0.552450000000     0.330280000000     0.538550000000    -0.0324966  
S5       S      0.486390000000     0.050850000000     0.798930000000    -0.0456182  
S6       S      0.384660000000     0.997580000000     0.112900000000    -0.0342755  
S7       S      0.622220000000     0.900730000000     0.954100000000    -0.038838   
S8       S      0.350180000000     0.064060000000     0.991920000000    -0.0455966  
S9       S      0.778890000000     0.337480000000     0.408720000000    -0.0651617  
S10      S      0.084160000000     0.668690000000     0.554930000000    -0.0371008  
S11      S      0.627160000000     0.439450000000     0.379080000000    -0.0380184  
S12      S      0.290470000000     0.377060000000     0.563510000000    -0.0587185  
S13      S      0.920410000000     0.402810000000     0.815200000000    -0.0434958  
S14      S      0.062450000000     0.428720000000     0.138720000000    -0.0339254  
S15      S      0.921620000000     0.288180000000     0.927150000000    -0.041357   
S16      S      0.166730000000     0.605780000000     0.074390000000    -0.0589682  
S17      S      0.857570000000     0.526840000000     0.066560000000    -0.0382076  
S18      S      0.125060000000     0.445590000000     0.874570000000    -0.0358139  
S19      S      0.667610000000     0.599850000000     0.579310000000    -0.0571412  
S20      S      0.314790000000     0.357470000000     0.367980000000    -0.0594739  
S21      S      0.815240000000     0.981620000000     0.360800000000    -0.0348794  
S22      S      0.173730000000     0.024300000000     0.586730000000    -0.0380499  
S23      S      0.992540000000     0.647900000000     0.368170000000    -0.0414633  
S24      S      0.850040000000     0.062090000000     0.490470000000    -0.0360009  
S25      S      0.987700000000     0.910070000000     0.645320000000    -0.0515648  
S26      S      0.067350000000     0.942940000000     0.140830000000    -0.0519361  
S27      S      0.753600000000     0.878810000000     0.961070000000    -0.0383312  
S28      S      0.218660000000     0.082310000000     0.983500000000    -0.0474171  
S29      S      0.868750000000     0.970040000000     0.106430000000    -0.0468755  
S30      S      0.094510000000     0.961940000000     0.834820000000    -0.0519207  
S31      S      0.001430000000     0.812500000000     0.049340000000    -0.0301522  
S32      S      0.994170000000     0.156750000000     0.886860000000    -0.057209   
Zr1      Zr     0.071040000000     0.000790000000     0.954380000000     1.39567    
Zr2      Zr     0.977000000000     0.030450000000     0.915680000000     1.37578    
Zr3      Zr     0.995160000000     0.930520000000     0.031190000000     1.37937    
Zr4      Zr     0.901450000000     0.960790000000     0.993210000000     1.36932    
Zr5      Zr     0.022300000000     0.042650000000     0.012620000000     1.37541    
Zr6      Zr     0.951030000000     0.918960000000     0.934750000000     1.36681    
Zr7      Zr     0.950960000000     0.895780000000     0.475840000000     1.36737    
Zr8      Zr     0.940630000000     0.980930000000     0.410070000000     1.38051    
Zr9      Zr     0.034110000000     0.979380000000     0.538290000000     1.38264    
Zr10     Zr     0.025100000000     0.064440000000     0.472160000000     1.39321    
Zr11     Zr     0.056320000000     0.988990000000     0.440350000000     1.35564    
Zr12     Zr     0.918420000000     0.971000000000     0.507450000000     1.35599    
Zr13     Zr     0.019110000000     0.436170000000     0.023570000000     1.39208    
Zr14     Zr     0.900530000000     0.418170000000     0.980120000000     1.38534    
Zr15     Zr     0.078960000000     0.542790000000     0.967430000000     1.37198    
Zr16     Zr     0.960730000000     0.525680000000     0.923850000000     1.38314    
Zr17     Zr     0.996690000000     0.443700000000     0.924180000000     1.37585    
Zr18     Zr     0.981200000000     0.516940000000     0.023100000000     1.3725     
Zr19     Zr     0.980980000000     0.429700000000     0.536340000000     1.37837    
Zr20     Zr     0.898090000000     0.446300000000     0.463350000000     1.37904    
Zr21     Zr     0.084220000000     0.515590000000     0.485600000000     1.37076    
Zr22     Zr     0.001120000000     0.531860000000     0.412260000000     1.38622    
Zr23     Zr     0.989490000000     0.424400000000     0.439480000000     1.36584    
Zr24     Zr     0.991700000000     0.537230000000     0.508480000000     1.36342    
Zr25     Zr     0.440400000000     0.986010000000     0.906830000000     1.37733    
Zr26     Zr     0.445680000000     0.897620000000     0.971030000000     1.39065    
Zr27     Zr     0.525120000000     0.066200000000     0.971430000000     1.38481    
Zr28     Zr     0.530630000000     0.977630000000     0.035830000000     1.37803    
Zr29     Zr     0.417360000000     0.973840000000     0.004790000000     1.3596     
Zr30     Zr     0.553730000000     0.990000000000     0.938020000000     1.36026    
Zr31     Zr     0.479980000000     0.030740000000     0.415380000000     1.37953    
Zr32     Zr     0.403550000000     0.962870000000     0.492510000000     1.38909    
Zr33     Zr     0.570410000000     0.996010000000     0.453030000000     1.36468    
Zr34     Zr     0.493580000000     0.927500000000     0.530330000000     1.37496    
Zr35     Zr     0.524680000000     0.040860000000     0.511650000000     1.36896    
Zr36     Zr     0.447200000000     0.916780000000     0.433610000000     1.36752    
Zr37     Zr     0.474980000000     0.430870000000     0.035310000000     1.382      
Zr38     Zr     0.393780000000     0.448870000000     0.961320000000     1.37894    
Zr39     Zr     0.579720000000     0.516390000000     0.985580000000     1.36895    
Zr40     Zr     0.498040000000     0.534190000000     0.911300000000     1.38552    
Zr41     Zr     0.485400000000     0.426440000000     0.938710000000     1.37229    
Zr42     Zr     0.487140000000     0.538710000000     0.006980000000     1.37038    
Zr43     Zr     0.514960000000     0.430530000000     0.524820000000     1.39239    
Zr44     Zr     0.401060000000     0.418090000000     0.478080000000     1.3936     
Zr45     Zr     0.581700000000     0.537910000000     0.470430000000     1.3703     
Zr46     Zr     0.466830000000     0.526000000000     0.423740000000     1.38351    
Zr47     Zr     0.498260000000     0.440480000000     0.425210000000     1.37787    
Zr48     Zr     0.483080000000     0.515350000000     0.523160000000     1.37648    


