data_structure

_audit_creation_method RASPA-1.0
_audit_creation_date 2023-6-4
_audit_author_name 'Poobodin Mano'

_cell_length_a    25.9373
_cell_length_b    28.2949
_cell_length_c    28.424
_cell_angle_alpha 82.7442
_cell_angle_beta  96.3288
_cell_angle_gamma 119.438
_cell_volume      17993.4

_symmetry_cell_setting          triclinic
_symmetry_space_group_name_Hall 'P 1'
_symmetry_space_group_name_H-M  'P 1'
_symmetry_Int_Tables_number     1

_symmetry_equiv_pos_as_xyz 'x,y,z'

loop_
_atom_site_label
_atom_site_type_symbol
_atom_site_fract_x
_atom_site_fract_y
_atom_site_fract_z
_atom_site_charge
C1       C      0.185270000000     0.143900000000     0.993060000000     0.381642   
C2       C      0.914390000000     0.935270000000     0.830450000000     0.392685   
C3       C      0.047660000000     0.174920000000     0.946370000000     0.401664   
C4       C      0.087710000000     0.901180000000     0.919840000000     0.403023   
C5       C      0.967560000000     0.807760000000     0.022840000000     0.397528   
C6       C      0.914560000000     0.074130000000     0.062840000000     0.394278   
C7       C      0.816820000000     0.839670000000     0.971130000000     0.374888   
C8       C      0.086800000000     0.044400000000     0.142440000000     0.392538   
C9       C      0.019480000000     0.853510000000     0.415310000000     0.387      
C10      C      0.800070000000     0.975470000000     0.427900000000     0.376502   
C11      C      0.050900000000     0.020590000000     0.323580000000     0.389679   
C12      C      0.795850000000     0.845580000000     0.533900000000     0.386409   
C13      C      0.919090000000     0.942350000000     0.641500000000     0.393175   
C14      C      0.183100000000     0.120800000000     0.441430000000     0.388347   
C15      C      0.960160000000     0.117550000000     0.556690000000     0.375188   
C16      C      0.173050000000     0.993000000000     0.537280000000     0.393475   
C17      C      0.047850000000     0.357590000000     0.955580000000     0.398279   
C18      C      0.841960000000     0.449860000000     0.083510000000     0.387026   
C19      C      0.869330000000     0.323160000000     0.918520000000     0.387177   
C20      C      0.022380000000     0.454360000000     0.163150000000     0.387162   
C21      C      0.120570000000     0.654370000000     0.067440000000     0.389943   
C22      C      0.974800000000     0.526060000000     0.825520000000     0.397351   
C23      C      0.934850000000     0.611040000000     0.033660000000     0.396828   
C24      C      0.140140000000     0.531550000000     0.891640000000     0.374141   
C25      C      0.982130000000     0.314570000000     0.564640000000     0.373946   
C26      C      0.834540000000     0.521540000000     0.476930000000     0.391246   
C27      C      0.869030000000     0.305210000000     0.485590000000     0.398104   
C28      C      0.979290000000     0.543450000000     0.638820000000     0.394723   
C29      C      0.110620000000     0.649680000000     0.556200000000     0.373035   
C30      C      0.025750000000     0.436320000000     0.350850000000     0.387783   
C31      C      0.010250000000     0.658020000000     0.423600000000     0.378533   
C32      C      0.162180000000     0.453340000000     0.511060000000     0.391818   
C33      C      0.299030000000     0.944980000000     0.950580000000     0.381394   
C34      C      0.541630000000     0.863710000000     0.922760000000     0.388006   
C35      C      0.317160000000     0.842800000000     0.050950000000     0.379701   
C36      C      0.547890000000     0.010660000000     0.828750000000     0.384947   
C37      C      0.673180000000     0.134460000000     0.918850000000     0.383787   
C38      C      0.458450000000     0.969150000000     0.156390000000     0.387168   
C39      C      0.702170000000     0.022500000000     0.035160000000     0.372627   
C40      C      0.454870000000     0.109830000000     0.054990000000     0.390416   
C41      C      0.480780000000     0.141900000000     0.468330000000     0.394598   
C42      C      0.337540000000     0.805350000000     0.503320000000     0.369605   
C43      C      0.403000000000     0.029020000000     0.585550000000     0.388191   
C44      C      0.403880000000     0.921300000000     0.335110000000     0.39837    
C45      C      0.571890000000     0.922680000000     0.385340000000     0.375079   
C46      C      0.587260000000     0.037400000000     0.644160000000     0.384003   
C47      C      0.498330000000     0.808500000000     0.516440000000     0.3975     
C48      C      0.661430000000     0.151930000000     0.482030000000     0.398132   
C49      C      0.472730000000     0.312330000000     0.029700000000     0.387757   
C50      C      0.341390000000     0.530530000000     0.978190000000     0.386271   
C51      C      0.362270000000     0.324730000000     0.916070000000     0.398448   
C52      C      0.483050000000     0.529840000000     0.131290000000     0.395447   
C53      C      0.635210000000     0.659730000000     0.046770000000     0.385246   
C54      C      0.570360000000     0.478670000000     0.837120000000     0.40097    
C55      C      0.525450000000     0.673260000000     0.925310000000     0.386746   
C56      C      0.649350000000     0.453460000000     0.976540000000     0.369665   
C57      C      0.548340000000     0.343580000000     0.461950000000     0.396732   
C58      C      0.338780000000     0.435600000000     0.584140000000     0.391608   
C59      C      0.391980000000     0.306300000000     0.434140000000     0.360644   
C60      C      0.548010000000     0.474750000000     0.653220000000     0.397279   
C61      C      0.608220000000     0.653770000000     0.547350000000     0.382019   
C62      C      0.479810000000     0.511200000000     0.317760000000     0.398124   
C63      C      0.432210000000     0.606890000000     0.511790000000     0.387807   
C64      C      0.643010000000     0.518710000000     0.386170000000     0.377946   
C65      C      0.626690000000     0.530460000000     0.767100000000    -0.0142501  
C66      C      0.579920000000     0.428010000000     0.777190000000    -0.0239765  
C67      C      0.588170000000     0.527830000000     0.722220000000    -0.00618987 
C68      C      0.584730000000     0.435050000000     0.722460000000     0.0311686  
C69      C      0.466980000000     0.564650000000     0.246060000000    -0.0131398  
C70      C      0.550270000000     0.541850000000     0.256090000000    -0.0246175  
C71      C      0.488970000000     0.585050000000     0.195230000000    -0.0113368  
C72      C      0.539900000000     0.526580000000     0.205090000000     0.0333748  
C73      C      0.425300000000     0.686650000000     0.474740000000    -0.0167974  
C74      C      0.433480000000     0.673050000000     0.562490000000    -0.023377   
C75      C      0.488750000000     0.733700000000     0.475230000000    -0.00624144 
C76      C      0.495580000000     0.724320000000     0.563690000000     0.0271467  
C77      C      0.540500000000     0.270950000000     0.415490000000    -0.0110306  
C78      C      0.554700000000     0.265440000000     0.503510000000    -0.0229431  
C79      C      0.478890000000     0.218940000000     0.418780000000    -0.0190124  
C80      C      0.490020000000     0.221250000000     0.506430000000     0.0305976  
C81      C      0.587310000000     0.989440000000     0.763510000000    -0.0149212  
C82      C      0.544820000000     0.054210000000     0.748280000000    -0.0225121  
C83      C      0.630470000000     0.022620000000     0.723760000000    -0.0137024  
C84      C      0.595060000000     0.089460000000     0.714690000000     0.0272527  
C85      C      0.468620000000     0.930800000000     0.237900000000    -0.0125422  
C86      C      0.406620000000     0.978240000000     0.220740000000    -0.0255293  
C87      C      0.418800000000     0.885130000000     0.267170000000    -0.0128968  
C88      C      0.359600000000     0.932370000000     0.252380000000     0.0323062  
C89      C      0.480170000000     0.731260000000     0.913210000000    -0.0108103  
C90      C      0.591590000000     0.770790000000     0.912090000000    -0.027269   
C91      C      0.486710000000     0.780700000000     0.880760000000    -0.00941732 
C92      C      0.595180000000     0.823280000000     0.884580000000     0.0299173  
C93      C      0.469440000000     0.186690000000     0.097520000000    -0.0150072  
C94      C      0.416650000000     0.167180000000     0.016350000000    -0.0214834  
C95      C      0.455620000000     0.234890000000     0.090640000000    -0.0114977  
C96      C      0.459240000000     0.227600000000     0.002880000000     0.0272226  
C97      C      0.751900000000     0.216760000000     0.440060000000    -0.00986088 
C98      C      0.733410000000     0.236030000000     0.518230000000    -0.0235604  
C99      C      0.808160000000     0.215160000000     0.461540000000    -0.0169774  
C100     C      0.790830000000     0.236210000000     0.538500000000     0.0271093  
C101     C      0.217520000000     0.689950000000     0.567010000000    -0.00879435 
C102     C      0.170030000000     0.720170000000     0.495840000000    -0.0225059  
C103     C      0.271640000000     0.745510000000     0.563290000000    -0.0161287  
C104     C      0.229340000000     0.773330000000     0.489150000000     0.027531   
C105     C      0.749660000000     0.582530000000     0.400740000000    -0.0105878  
C106     C      0.716200000000     0.488520000000     0.377570000000    -0.0259727  
C107     C      0.806480000000     0.579520000000     0.419330000000    -0.0120824  
C108     C      0.745940000000     0.475810000000     0.423590000000     0.0335256  
C109     C      0.207180000000     0.392030000000     0.530160000000    -0.0178879  
C110     C      0.267400000000     0.492850000000     0.539100000000    -0.0232308  
C111     C      0.229380000000     0.382560000000     0.581970000000    -0.0132375  
C112     C      0.277470000000     0.479580000000     0.592130000000     0.0330777  
C113     C      0.044720000000     0.569160000000     0.710180000000    -0.00915067 
C114     C      0.954500000000     0.582270000000     0.700240000000    -0.0227106  
C115     C      0.020500000000     0.530630000000     0.753780000000    -0.00529001 
C116     C      0.963930000000     0.584090000000     0.755530000000     0.0261108  
C117     C      0.048360000000     0.397760000000     0.286820000000    -0.0093943  
C118     C      0.956900000000     0.405290000000     0.282220000000    -0.0195247  
C119     C      0.063900000000     0.428470000000     0.236930000000    -0.0159214  
C120     C      0.972610000000     0.442830000000     0.236640000000     0.0285087  
C121     C      0.775180000000     0.177510000000     0.889020000000    -0.0117652  
C122     C      0.715920000000     0.224540000000     0.872190000000    -0.0228287  
C123     C      0.827040000000     0.227410000000     0.911280000000    -0.0154693  
C124     C      0.766270000000     0.276980000000     0.892070000000     0.0315974  
C125     C      0.221910000000     0.772970000000     0.020760000000    -0.012153   
C126     C      0.235320000000     0.793470000000     0.107260000000    -0.0246862  
C127     C      0.157090000000     0.746610000000     0.032810000000    -0.00667225 
C128     C      0.187390000000     0.731890000000     0.118280000000     0.0293239  
C129     C      0.740440000000     0.501160000000     0.025170000000    -0.0124063  
C130     C      0.678930000000     0.400870000000     0.039190000000    -0.0257838  
C131     C      0.796990000000     0.498840000000     0.038630000000    -0.00979443 
C132     C      0.735100000000     0.396130000000     0.058190000000     0.0362819  
C133     C      0.304880000000     0.590100000000     0.932570000000    -0.0141378  
C134     C      0.235380000000     0.489440000000     0.953530000000    -0.0227397  
C135     C      0.246620000000     0.591260000000     0.913510000000    -0.00722409 
C136     C      0.205630000000     0.490760000000     0.904360000000     0.0257827  
C137     C      0.641180000000     0.745010000000     0.508300000000    -0.00811216 
C138     C      0.656160000000     0.734540000000     0.595620000000    -0.0236353  
C139     C      0.706910000000     0.773450000000     0.501860000000    -0.0100203  
C140     C      0.724080000000     0.776350000000     0.591120000000     0.0251912  
C141     C      0.325090000000     0.227170000000     0.386380000000    -0.0165284  
C142     C      0.340320000000     0.215110000000     0.474820000000    -0.0273149  
C143     C      0.274290000000     0.166750000000     0.395620000000    -0.015847   
C144     C      0.274170000000     0.193850000000     0.478030000000     0.0348952  
C145     C      0.670290000000     0.968520000000     0.352400000000    -0.0136794  
C146     C      0.636220000000     0.879410000000     0.403160000000    -0.0262207  
C147     C      0.730210000000     0.969460000000     0.360420000000    -0.0160452  
C148     C      0.694860000000     0.905260000000     0.434650000000     0.0232488  
C149     C      0.333680000000     0.044370000000     0.530560000000    -0.00700924 
C150     C      0.300820000000     0.984570000000     0.607010000000    -0.021686   
C151     C      0.278750000000     0.050860000000     0.528630000000    -0.0182059  
C152     C      0.245010000000     0.991230000000     0.603710000000     0.0245631  
C153     C      0.962210000000     0.714190000000     0.409670000000    -0.00969247 
C154     C      0.066800000000     0.752030000000     0.382990000000    -0.0248742  
C155     C      0.968460000000     0.765300000000     0.380180000000    -0.0155596  
C156     C      0.079080000000     0.809140000000     0.397240000000     0.0301733  
C157     C      0.918240000000     0.217730000000     0.597100000000    -0.0176213  
C158     C      0.026090000000     0.254090000000     0.580170000000    -0.0238271  
C159     C      0.905480000000     0.161520000000     0.580900000000    -0.014197   
C160     C      0.012350000000     0.198830000000     0.606970000000     0.0340528  
C161     C      0.856550000000     0.939880000000     0.702690000000    -0.0141998  
C162     C      0.917390000000     0.890490000000     0.717950000000    -0.0219704  
C163     C      0.876490000000     0.958450000000     0.753020000000    -0.00953939 
C164     C      0.889990000000     0.873920000000     0.766820000000     0.0291848  
C165     C      0.132420000000     0.028670000000     0.220140000000    -0.0112047  
C166     C      0.108290000000     0.103430000000     0.207210000000    -0.0242981  
C167     C      0.089570000000     0.000150000000     0.259810000000    -0.012624   
C168     C      0.063490000000     0.077850000000     0.246610000000     0.0338224  
C169     C      0.791770000000     0.775590000000     0.042230000000    -0.0183305  
C170     C      0.714920000000     0.797630000000     0.997100000000    -0.0253268  
C171     C      0.742650000000     0.717970000000     0.054430000000    -0.0084849  
C172     C      0.675090000000     0.760690000000     0.038160000000     0.0307756  
C173     C      0.274610000000     0.175490000000     0.949030000000    -0.0132967  
C174     C      0.219670000000     0.230310000000     0.943160000000    -0.0240553  
C175     C      0.331140000000     0.228760000000     0.936040000000    -0.0112446  
C176     C      0.257020000000     0.259080000000     0.899550000000     0.0350025  
C177     C      0.783930000000     0.033080000000     0.094480000000    -0.0120776  
C178     C      0.805060000000     0.078940000000     0.009660000000    -0.0221133  
C179     C      0.845670000000     0.078550000000     0.110790000000    -0.0113576  
C180     C      0.862640000000     0.125020000000     0.031400000000     0.0265826  
C181     C      0.196110000000     0.896580000000     0.977060000000    -0.0112693  
C182     C      0.217660000000     0.933290000000     0.890440000000    -0.0259316  
C183     C      0.135240000000     0.851420000000     0.958860000000    -0.0111762  
C184     C      0.155590000000     0.886720000000     0.876340000000     0.0334643  
C185     C      0.932750000000     0.672960000000     0.087140000000    -0.010717   
C186     C      0.880300000000     0.661080000000     0.008140000000    -0.0180597  
C187     C      0.975440000000     0.733210000000     0.073370000000    -0.0148051  
C188     C      0.922210000000     0.719280000000     0.990050000000     0.0250544  
C189     C      0.118330000000     0.269550000000     0.962410000000    -0.0108206  
C190     C      0.042840000000     0.247770000000     0.892690000000    -0.0209005  
C191     C      0.097500000000     0.304250000000     0.981620000000    -0.00833722 
C192     C      0.057750000000     0.307610000000     0.894510000000     0.0339798  
H1       H      0.034230000000     0.987560000000     0.874320000000     0.193554   
H2       H      0.935060000000     0.067490000000     0.977690000000     0.200026   
H3       H      0.909780000000     0.866900000000     0.035990000000     0.20218    
H4       H      0.125990000000     0.037030000000     0.057040000000     0.204242   
H5       H      0.861890000000     0.033320000000     0.900150000000     0.130233   
H6       H      0.773250000000     0.953870000000     0.981620000000     0.200617   
H7       H      0.841020000000     0.918730000000     0.108190000000     0.141504   
H8       H      0.930240000000     0.852350000000     0.132850000000     0.198039   
H9       H      0.126790000000     0.922400000000     0.068080000000     0.134887   
H10      H      0.230670000000     0.029210000000     0.989730000000     0.197439   
H11      H      0.138620000000     0.106730000000     0.880370000000     0.143855   
H12      H      0.044420000000     0.077450000000     0.814820000000     0.194863   
H13      H      0.985920000000     0.893080000000     0.168900000000     0.202904   
H14      H      0.236350000000     0.051670000000     0.932230000000     0.197594   
H15      H      0.025240000000     0.125130000000     0.819220000000     0.203223   
H16      H      0.763990000000     0.926270000000     0.037720000000     0.198539   
H17      H      0.847870000000     0.914450000000     0.445950000000     0.193697   
H18      H      0.063370000000     0.080020000000     0.397450000000     0.195936   
H19      H      0.005280000000     0.047550000000     0.581440000000     0.193345   
H20      H      0.040050000000     0.895040000000     0.511680000000     0.19809    
H21      H      0.985420000000     0.113060000000     0.352630000000     0.135752   
H22      H      0.019440000000     0.176260000000     0.432720000000     0.204927   
H23      H      0.136450000000     0.146210000000     0.564750000000     0.128869   
H24      H      0.109120000000     0.060530000000     0.631330000000     0.184922   
H25      H      0.992920000000     0.857820000000     0.614380000000     0.138754   
H26      H      0.950930000000     0.787330000000     0.525620000000     0.197931   
H27      H      0.832970000000     0.831530000000     0.403160000000     0.123      
H28      H      0.876480000000     0.911820000000     0.331460000000     0.189833   
H29      H      0.093470000000     0.004120000000     0.667360000000     0.201674   
H30      H      0.900990000000     0.787730000000     0.557950000000     0.197967   
H31      H      0.860100000000     0.960310000000     0.307420000000     0.200755   
H32      H      0.079180000000     0.183140000000     0.408800000000     0.192256   
H33      H      0.939570000000     0.411410000000     0.094370000000     0.201315   
H34      H      0.885390000000     0.442490000000     0.904170000000     0.198286   
H35      H      0.039640000000     0.619080000000     0.997700000000     0.198239   
H36      H      0.109340000000     0.471450000000     0.973270000000     0.200405   
H37      H      0.768250000000     0.372640000000     0.950730000000     0.133576   
H38      H      0.832770000000     0.504940000000     0.882030000000     0.201578   
H39      H      0.036410000000     0.657010000000     0.904710000000     0.130862   
H40      H      0.171810000000     0.679810000000     0.928020000000     0.192663   
H41      H      0.219180000000     0.595430000000     0.038060000000     0.139594   
H42      H      0.157760000000     0.428940000000     0.060900000000     0.199666   
H43      H      0.956000000000     0.313310000000     0.076860000000     0.13321    
H44      H      0.808240000000     0.298230000000     0.063180000000     0.193575   
H45      H      0.224500000000     0.675660000000     0.964960000000     0.19072    
H46      H      0.158900000000     0.466880000000     0.102080000000     0.20546    
H47      H      0.762270000000     0.299570000000     0.017560000000     0.189174   
H48      H      0.833130000000     0.547370000000     0.918230000000     0.20438    
H49      H      0.880530000000     0.463420000000     0.561860000000     0.199613   
H50      H      0.937340000000     0.423610000000     0.396480000000     0.191739   
H51      H      0.083200000000     0.617750000000     0.468470000000     0.201058   
H52      H      0.074510000000     0.435150000000     0.564680000000     0.19262    
H53      H      0.831180000000     0.390430000000     0.376100000000     0.125818   
H54      H      0.922410000000     0.547370000000     0.340200000000     0.20468    
H55      H      0.130210000000     0.576700000000     0.364280000000     0.141362   
H56      H      0.180460000000     0.625110000000     0.443410000000     0.195285   
H57      H      0.171750000000     0.539540000000     0.613970000000     0.132778   
H58      H      0.062790000000     0.433000000000     0.661750000000     0.185555   
H59      H      0.889460000000     0.397910000000     0.660320000000     0.139317   
H60      H      0.747580000000     0.363880000000     0.488980000000     0.200814   
H61      H      0.231730000000     0.623530000000     0.483430000000     0.204603   
H62      H      0.997180000000     0.392970000000     0.685580000000     0.195536   
H63      H      0.752040000000     0.349470000000     0.434840000000     0.194391   
H64      H      0.965280000000     0.540510000000     0.304700000000     0.204419   
H65      H      0.480340000000     0.917850000000     0.899780000000     0.19326    
H66      H      0.444540000000     0.898230000000     0.088290000000     0.198461   
H67      H      0.641800000000     0.074740000000     0.017510000000     0.19152    
H68      H      0.428380000000     0.060920000000     0.962550000000     0.197642   
H69      H      0.426900000000     0.795830000000     0.074860000000     0.132249   
H70      H      0.599100000000     0.898600000000     0.113200000000     0.204773   
H71      H      0.638090000000     0.084770000000     0.119340000000     0.126341   
H72      H      0.653440000000     0.174060000000     0.052050000000     0.183509   
H73      H      0.538070000000     0.155560000000     0.901360000000     0.14324    
H74      H      0.393760000000     0.069280000000     0.870320000000     0.194544   
H75      H      0.366620000000     0.890970000000     0.862380000000     0.126976   
H76      H      0.356860000000     0.787730000000     0.934590000000     0.186359   
H77      H      0.639110000000     0.214760000000     0.011180000000     0.19628    
H78      H      0.451760000000     0.086440000000     0.838280000000     0.199844   
H79      H      0.378730000000     0.755300000000     0.978730000000     0.193943   
H80      H      0.548140000000     0.890350000000     0.149480000000     0.199469   
H81      H      0.352890000000     0.906600000000     0.439770000000     0.194013   
H82      H      0.482300000000     0.970870000000     0.609100000000     0.207679   
H83      H      0.577070000000     0.921170000000     0.479010000000     0.203178   
H84      H      0.552640000000     0.102280000000     0.436400000000     0.197021   
H85      H      0.350170000000     0.863680000000     0.628250000000     0.135123   
H86      H      0.471130000000     0.852880000000     0.641270000000     0.192061   
H87      H      0.670870000000     0.984570000000     0.583450000000     0.138615   
H88      H      0.701160000000     0.026810000000     0.496910000000     0.199615   
H89      H      0.616140000000     0.087220000000     0.351880000000     0.134154   
H90      H      0.505510000000     0.102260000000     0.339420000000     0.184823   
H91      H      0.337030000000     0.034040000000     0.413040000000     0.144366   
H92      H      0.283040000000     0.920200000000     0.476660000000     0.201419   
H93      H      0.716850000000     0.037460000000     0.439940000000     0.208972   
H94      H      0.433850000000     0.083290000000     0.325970000000     0.198834   
H95      H      0.257100000000     0.892320000000     0.529980000000     0.207616   
H96      H      0.541790000000     0.875110000000     0.661230000000     0.201624   
H97      H      0.387150000000     0.468230000000     0.045770000000     0.201821   
H98      H      0.448340000000     0.452360000000     0.868280000000     0.187326   
H99      H      0.599420000000     0.623960000000     0.966070000000     0.196313   
H100     H      0.564140000000     0.422530000000     0.039550000000     0.207008   
H101     H      0.342430000000     0.449510000000     0.847150000000     0.13044    
H102     H      0.456250000000     0.583790000000     0.819490000000     0.208432   
H103     H      0.654600000000     0.637400000000     0.882120000000     0.129319   
H104     H      0.736690000000     0.617600000000     0.984290000000     0.191164   
H105     H      0.668940000000     0.532540000000     0.107000000000     0.140954   
H106     H      0.526270000000     0.402630000000     0.150900000000     0.200463   
H107     H      0.339120000000     0.348290000000     0.056450000000     0.135803   
H108     H      0.256970000000     0.368410000000     0.967730000000     0.193029   
H109     H      0.743370000000     0.604810000000     0.043220000000     0.192323   
H110     H      0.453850000000     0.365930000000     0.160360000000     0.202371   
H111     H      0.254200000000     0.388320000000     0.909950000000     0.196162   
H112     H      0.469430000000     0.538380000000     0.798290000000     0.196667   
H113     H      0.441820000000     0.410620000000     0.591900000000     0.196347   
H114     H      0.383640000000     0.420070000000     0.397800000000     0.194167   
H115     H      0.529470000000     0.607930000000     0.479380000000     0.19707    
H116     H      0.612680000000     0.467300000000     0.470610000000     0.208843   
H117     H      0.283950000000     0.334380000000     0.434310000000     0.133292   
H118     H      0.309130000000     0.483630000000     0.425840000000     0.203775   
H119     H      0.495030000000     0.640040000000     0.385360000000     0.127949   
H120     H      0.666010000000     0.668960000000     0.409620000000     0.194733   
H121     H      0.714750000000     0.597800000000     0.528520000000     0.138927   
H122     H      0.669820000000     0.475730000000     0.583780000000     0.210031   
H123     H      0.464070000000     0.311500000000     0.575580000000     0.137898   
H124     H      0.321170000000     0.283820000000     0.558370000000     0.195563   
H125     H      0.718540000000     0.669230000000     0.449590000000     0.198556   
H126     H      0.653210000000     0.414030000000     0.569500000000     0.203993   
H127     H      0.266770000000     0.292710000000     0.528640000000     0.206179   
H128     H      0.322670000000     0.478430000000     0.371010000000     0.197435   
H129     H      0.607920000000     0.411000000000     0.796100000000     0.0437416  
H130     H      0.669920000000     0.535570000000     0.758390000000     0.040603   
H131     H      0.614000000000     0.564370000000     0.697820000000     0.0383616  
H132     H      0.533080000000     0.397440000000     0.784210000000     0.0431339  
H133     H      0.552420000000     0.394870000000     0.709160000000     0.0360536  
H134     H      0.637920000000     0.567400000000     0.784890000000     0.0489717  
H135     H      0.547980000000     0.528670000000     0.731230000000     0.040587   
H136     H      0.584320000000     0.585380000000     0.258970000000     0.0426281  
H137     H      0.476770000000     0.600350000000     0.265210000000     0.0430069  
H138     H      0.530280000000     0.624990000000     0.195930000000     0.0386361  
H139     H      0.567970000000     0.517050000000     0.278260000000     0.0498386  
H140     H      0.517870000000     0.481330000000     0.206740000000     0.0399325  
H141     H      0.418090000000     0.537770000000     0.243610000000     0.0380618  
H142     H      0.454720000000     0.591350000000     0.172520000000     0.0392774  
H143     H      0.398820000000     0.684580000000     0.565990000000     0.0430138  
H144     H      0.393780000000     0.702130000000     0.477260000000     0.0473378  
H145     H      0.495870000000     0.761770000000     0.442510000000     0.0430404  
H146     H      0.429930000000     0.643120000000     0.593070000000     0.0500903  
H147     H      0.528780000000     0.710410000000     0.563660000000     0.0412407  
H148     H      0.413400000000     0.667200000000     0.440730000000     0.0476289  
H149     H      0.519830000000     0.717460000000     0.474310000000     0.0291121  
H150     H      0.583710000000     0.247160000000     0.501220000000     0.047413   
H151     H      0.574290000000     0.258650000000     0.411340000000     0.0313613  
H152     H      0.471190000000     0.194210000000     0.388700000000     0.0358954  
H153     H      0.571590000000     0.288960000000     0.535480000000     0.0457948  
H154     H      0.462240000000     0.241590000000     0.502150000000     0.0353989  
H155     H      0.540790000000     0.297640000000     0.383180000000     0.0414278  
H156     H      0.444090000000     0.231250000000     0.414930000000     0.0460281  
H157     H      0.503500000000     0.027230000000     0.727850000000     0.0466366  
H158     H      0.549790000000     0.952420000000     0.748900000000     0.0357939  
H159     H      0.640080000000     0.995150000000     0.706110000000     0.0393568  
H160     H      0.535860000000     0.081300000000     0.767350000000     0.0409745  
H161     H      0.635320000000     0.114440000000     0.737200000000     0.0336838  
H162     H      0.611110000000     0.975660000000     0.792030000000     0.0441781  
H163     H      0.673570000000     0.052370000000     0.740270000000     0.0387644  
H164     H      0.435620000000     0.013720000000     0.241710000000     0.0457225  
H165     H      0.502870000000     0.960540000000     0.261830000000     0.0483208  
H166     H      0.437710000000     0.864710000000     0.293850000000     0.0456025  
H167     H      0.384150000000     0.992180000000     0.191110000000     0.0481435  
H168     H      0.329080000000     0.899960000000     0.228860000000     0.0327706  
H169     H      0.489680000000     0.911990000000     0.220550000000     0.0358332  
H170     H      0.386790000000     0.853570000000     0.243510000000     0.0371256  
H171     H      0.603930000000     0.778360000000     0.950120000000     0.0409697  
H172     H      0.477160000000     0.737290000000     0.950540000000     0.0493649  
H173     H      0.447590000000     0.786620000000     0.882200000000     0.0332726  
H174     H      0.623570000000     0.761450000000     0.897790000000     0.042446   
H175     H      0.593090000000     0.818730000000     0.846000000000     0.0317561  
H176     H      0.438370000000     0.695030000000     0.902100000000     0.0336607  
H177     H      0.486970000000     0.773290000000     0.843260000000     0.034497   
H178     H      0.409210000000     0.142600000000     0.986030000000     0.0298546  
H179     H      0.518300000000     0.203790000000     0.097410000000     0.0435214  
H180     H      0.485090000000     0.265370000000     0.116040000000     0.035883   
H181     H      0.372850000000     0.162300000000     0.022980000000     0.0389449  
H182     H      0.440330000000     0.238940000000     0.969420000000     0.0360821  
H183     H      0.455100000000     0.164300000000     0.132790000000     0.0320079  
H184     H      0.408900000000     0.219620000000     0.099090000000     0.0392571  
H185     H      0.741690000000     0.277520000000     0.505340000000     0.0472928  
H186     H      0.764010000000     0.258650000000     0.424190000000     0.0272856  
H187     H      0.840390000000     0.227260000000     0.433670000000     0.0365724  
H188     H      0.701080000000     0.221430000000     0.546410000000     0.0462601  
H189     H      0.778810000000     0.193970000000     0.553360000000     0.0288751  
H190     H      0.732330000000     0.190210000000     0.410200000000     0.0452011  
H191     H      0.796650000000     0.172980000000     0.476160000000     0.0400043  
H192     H      0.165840000000     0.692420000000     0.469760000000     0.0275267  
H193     H      0.225990000000     0.661460000000     0.550200000000     0.0372026  
H194     H      0.310270000000     0.740740000000     0.579160000000     0.0382358  
H195     H      0.133070000000     0.729690000000     0.487600000000     0.0452243  
H196     H      0.225840000000     0.804980000000     0.505720000000     0.025501   
H197     H      0.210960000000     0.676110000000     0.605410000000     0.0400073  
H198     H      0.266230000000     0.772990000000     0.584530000000     0.0458282  
H199     H      0.677430000000     0.450950000000     0.364760000000     0.0474423  
H200     H      0.735730000000     0.595130000000     0.430220000000     0.035176   
H201     H      0.832590000000     0.612730000000     0.443240000000     0.0423037  
H202     H      0.748110000000     0.504610000000     0.348960000000     0.0389616  
H203     H      0.765480000000     0.451520000000     0.413690000000     0.027684   
H204     H      0.760290000000     0.614650000000     0.370840000000     0.0335764  
H205     H      0.833740000000     0.587240000000     0.388800000000     0.0339457  
H206     H      0.304210000000     0.497530000000     0.518850000000     0.0448633  
H207     H      0.235480000000     0.389750000000     0.504950000000     0.0431241  
H208     H      0.233550000000     0.344960000000     0.585990000000     0.0407961  
H209     H      0.268150000000     0.532780000000     0.532450000000     0.0502485  
H210     H      0.236570000000     0.468930000000     0.610050000000     0.0303107  
H211     H      0.161130000000     0.358840000000     0.523560000000     0.0435545  
H212     H      0.195010000000     0.374790000000     0.606580000000     0.032424   
H213     H      0.959240000000     0.621270000000     0.681900000000     0.0433487  
H214     H      0.075110000000     0.611220000000     0.720270000000     0.0426598  
H215     H      0.059160000000     0.533530000000     0.777190000000     0.0442866  
H216     H      0.907850000000     0.550660000000     0.692460000000     0.0375119  
H217     H      0.920590000000     0.573580000000     0.769090000000     0.0325105  
H218     H      0.072050000000     0.557590000000     0.691700000000     0.0432707  
H219     H      0.993560000000     0.488160000000     0.743400000000     0.0420064  
H220     H      0.930660000000     0.361760000000     0.274210000000     0.0391037  
H221     H      0.023810000000     0.353130000000     0.283370000000     0.0387193  
H222     H      0.077150000000     0.405740000000     0.216180000000     0.0427986  
H223     H      0.928620000000     0.413200000000     0.303500000000     0.0307248  
H224     H      0.993010000000     0.485690000000     0.245780000000     0.0374933  
H225     H      0.089870000000     0.407090000000     0.308960000000     0.033059   
H226     H      0.103320000000     0.469130000000     0.241360000000     0.0371655  
H227     H      0.719090000000     0.225550000000     0.833240000000     0.0423768  
H228     H      0.781400000000     0.179920000000     0.850520000000     0.0406865  
H229     H      0.869450000000     0.231790000000     0.901010000000     0.0367553  
H230     H      0.672350000000     0.221640000000     0.876840000000     0.0407023  
H231     H      0.753360000000     0.278520000000     0.927690000000     0.0227903  
H232     H      0.775370000000     0.140000000000     0.905940000000     0.0404254  
H233     H      0.825550000000     0.218940000000     0.950600000000     0.0415427  
H234     H      0.271130000000     0.807310000000     0.136070000000     0.0408407  
H235     H      0.232870000000     0.741410000000     0.013520000000     0.0461943  
H236     H      0.127490000000     0.726340000000     0.001780000000     0.0257239  
H237     H      0.213870000000     0.819260000000     0.106730000000     0.0435491  
H238     H      0.159600000000     0.729710000000     0.146400000000     0.0312887  
H239     H      0.228590000000     0.801100000000     0.988090000000     0.034793   
H240     H      0.145940000000     0.778170000000     0.039960000000     0.032691   
H241     H      0.654610000000     0.401120000000     0.069080000000     0.0384229  
H242     H      0.726490000000     0.510570000000     0.056570000000     0.0293085  
H243     H      0.825780000000     0.534980000000     0.058720000000     0.0460288  
H244     H      0.648500000000     0.364010000000     0.020220000000     0.0451873  
H245     H      0.744360000000     0.377120000000     0.030900000000     0.0249784  
H246     H      0.752410000000     0.535440000000     0.997190000000     0.0346108  
H247     H      0.818160000000     0.502790000000     0.005370000000     0.0465672  
H248     H      0.235200000000     0.449940000000     0.960520000000     0.0427868  
H249     H      0.332120000000     0.598450000000     0.901870000000     0.040619   
H250     H      0.256690000000     0.623170000000     0.883470000000     0.0317601  
H251     H      0.207630000000     0.488950000000     0.980800000000     0.0362827  
H252     H      0.163240000000     0.452050000000     0.903570000000     0.0344828  
H253     H      0.330770000000     0.623710000000     0.956130000000     0.0357808  
H254     H      0.232720000000     0.603940000000     0.942660000000     0.0266802  
H255     H      0.631680000000     0.755660000000     0.603080000000     0.0465532  
H256     H      0.626940000000     0.775570000000     0.511900000000     0.0402458  
H257     H      0.715970000000     0.799920000000     0.468100000000     0.0280025  
H258     H      0.650330000000     0.703670000000     0.625990000000     0.0401018  
H259     H      0.748320000000     0.752710000000     0.598900000000     0.0274855  
H260     H      0.616430000000     0.723180000000     0.476390000000     0.0243367  
H261     H      0.721360000000     0.742950000000     0.498710000000     0.0482066  
H262     H      0.349560000000     0.180820000000     0.473320000000     0.0426824  
H263     H      0.356310000000     0.228560000000     0.361760000000     0.0345965  
H264     H      0.293840000000     0.139100000000     0.400290000000     0.039194   
H265     H      0.366090000000     0.235240000000     0.507170000000     0.0401196  
H266     H      0.265080000000     0.228680000000     0.473960000000     0.0319147  
H267     H      0.304510000000     0.251780000000     0.368840000000     0.0331319  
H268     H      0.243190000000     0.155780000000     0.363610000000     0.035757   
H269     H      0.599010000000     0.847480000000     0.424230000000     0.0410008  
H270     H      0.676930000000     0.007470000000     0.363360000000     0.0411022  
H271     H      0.765000000000     0.010910000000     0.347980000000     0.0412561  
H272     H      0.641600000000     0.857920000000     0.375470000000     0.0352512  
H273     H      0.710400000000     0.874760000000     0.440900000000     0.022434   
H274     H      0.656840000000     0.966960000000     0.313870000000     0.0373915  
H275     H      0.730680000000     0.939820000000     0.338450000000     0.0352156  
H276     H      0.289180000000     0.944670000000     0.594520000000     0.0446567  
H277     H      0.325630000000     0.013560000000     0.506060000000     0.0331664  
H278     H      0.266340000000     0.057950000000     0.490700000000     0.0466214  
H279     H      0.316930000000     0.984440000000     0.645040000000     0.0428512  
H280     H      0.254020000000     0.025250000000     0.624880000000     0.0343443  
H281     H      0.370500000000     0.083980000000     0.517100000000     0.043238   
H282     H      0.291490000000     0.087870000000     0.546540000000     0.0410543  
H283     H      0.106170000000     0.746050000000     0.392330000000     0.0407432  
H284     H      0.958410000000     0.717660000000     0.447550000000     0.0480881  
H285     H      0.927730000000     0.768430000000     0.382260000000     0.0455323  
H286     H      0.059410000000     0.751470000000     0.343750000000     0.0428066  
H287     H      0.109000000000     0.841420000000     0.371440000000     0.0318779  
H288     H      0.920970000000     0.678750000000     0.396900000000     0.0329168  
H289     H      0.970790000000     0.761770000000     0.342030000000     0.0359359  
H290     H      0.034860000000     0.254190000000     0.542670000000     0.0571773  
H291     H      0.881550000000     0.224400000000     0.582110000000     0.0427228  
H292     H      0.886180000000     0.158490000000     0.543710000000     0.0406847  
H293     H      0.066220000000     0.287400000000     0.597060000000     0.0365181  
H294     H      0.001020000000     0.199150000000     0.643530000000     0.0287298  
H295     H      0.918060000000     0.215230000000     0.636420000000     0.0374571  
H296     H      0.871830000000     0.127850000000     0.603520000000     0.0363838  
H297     H      0.907610000000     0.853700000000     0.700360000000     0.0405196  
H298     H      0.811000000000     0.904720000000     0.702110000000     0.0455657  
H299     H      0.840390000000     0.961460000000     0.767860000000     0.0407649  
H300     H      0.966390000000     0.913960000000     0.724400000000     0.0423018  
H301     H      0.916860000000     0.858700000000     0.790290000000     0.0354416  
H302     H      0.854800000000     0.973890000000     0.679570000000     0.0435386  
H303     H      0.915860000000     0.999830000000     0.750200000000     0.0421504  
H304     H      0.153440000000     0.131750000000     0.221980000000     0.0420319  
H305     H      0.177010000000     0.056700000000     0.235770000000     0.0374697  
H306     H      0.110720000000     0.982850000000     0.287670000000     0.0443451  
H307     H      0.095160000000     0.128120000000     0.180070000000     0.0486183  
H308     H      0.017990000000     0.056940000000     0.229610000000     0.0359336  
H309     H      0.137540000000     0.998330000000     0.202640000000     0.0419885  
H310     H      0.048490000000     0.965600000000     0.245520000000     0.0366222  
H311     H      0.718200000000     0.838570000000     0.994230000000     0.0424842  
H312     H      0.802540000000     0.799870000000     0.073050000000     0.0384068  
H313     H      0.751460000000     0.703500000000     0.091070000000     0.0329298  
H314     H      0.692770000000     0.779150000000     0.963520000000     0.0376069  
H315     H      0.628590000000     0.749560000000     0.026260000000     0.0351971  
H316     H      0.832170000000     0.773220000000     0.036480000000     0.0315075  
H317     H      0.746390000000     0.693280000000     0.029020000000     0.0409878  
H318     H      0.172200000000     0.215540000000     0.931810000000     0.0454687  
H319     H      0.256370000000     0.151060000000     0.917760000000     0.0359518  
H320     H      0.357710000000     0.220630000000     0.913350000000     0.036252   
H321     H      0.232450000000     0.260440000000     0.969700000000     0.0417231  
H322     H      0.253120000000     0.296370000000     0.888580000000     0.0296195  
H323     H      0.287710000000     0.151490000000     0.976880000000     0.0370885  
H324     H      0.356600000000     0.242710000000     0.970240000000     0.0433757  
H325     H      0.814770000000     0.051950000000     0.991410000000     0.0409558  
H326     H      0.785650000000     0.994670000000     0.094380000000     0.037217   
H327     H      0.864460000000     0.062170000000     0.141480000000     0.0310962  
H328     H      0.785390000000     0.098250000000     0.982440000000     0.0414315  
H329     H      0.851090000000     0.153910000000     0.044530000000     0.0306113  
H330     H      0.752920000000     0.025860000000     0.121960000000     0.0415335  
H331     H      0.840460000000     0.111330000000     0.123860000000     0.0372848  
H332     H      0.216900000000     0.972420000000     0.888590000000     0.0453484  
H333     H      0.190460000000     0.928080000000     0.991900000000     0.0404947  
H334     H      0.102500000000     0.837390000000     0.986680000000     0.0359047  
H335     H      0.248500000000     0.938060000000     0.863680000000     0.0475795  
H336     H      0.160770000000     0.850950000000     0.871190000000     0.0314229  
H337     H      0.213080000000     0.877560000000     0.006830000000     0.0410004  
H338     H      0.139500000000     0.815590000000     0.952400000000     0.033439   
H339     H      0.859410000000     0.633640000000     0.978830000000     0.0352708  
H340     H      0.954770000000     0.656400000000     0.114800000000     0.0454955  
H341     H      0.019150000000     0.737890000000     0.066460000000     0.0430476  
H342     H      0.843230000000     0.660760000000     0.024620000000     0.0277883  
H343     H      0.893070000000     0.732660000000     0.967510000000     0.0405905  
H344     H      0.893730000000     0.669550000000     0.103240000000     0.0319652  
H345     H      0.981830000000     0.756490000000     0.104220000000     0.0406769  
H346     H      0.056520000000     0.241060000000     0.859430000000     0.0384849  
H347     H      0.156210000000     0.295370000000     0.939670000000     0.0300112  
H348     H      0.136830000000     0.340020000000     0.996380000000     0.0283379  
H349     H      0.993680000000     0.222330000000     0.892620000000     0.0421277  
H350     H      0.019870000000     0.311030000000     0.875170000000     0.0383762  
H351     H      0.135590000000     0.251270000000     0.992590000000     0.0453808  
H352     H      0.067490000000     0.279850000000     0.010780000000     0.0520965  
N1       N      0.570220000000     0.477700000000     0.699240000000    -0.171654   
N2       N      0.594660000000     0.479220000000     0.796730000000    -0.165088   
N3       N      0.501430000000     0.545850000000     0.176280000000    -0.168299   
N4       N      0.494760000000     0.533860000000     0.272720000000    -0.163864   
N5       N      0.500820000000     0.760790000000     0.519600000000    -0.169643   
N6       N      0.422200000000     0.649260000000     0.516510000000    -0.164214   
N7       N      0.475400000000     0.188020000000     0.465450000000    -0.170308   
N8       N      0.556180000000     0.299460000000     0.459440000000    -0.166654   
N9       N      0.606920000000     0.052530000000     0.690010000000    -0.166359   
N10      N      0.563000000000     0.020550000000     0.782380000000    -0.16221    
N11      N      0.388500000000     0.908930000000     0.288580000000    -0.167695   
N12      N      0.444100000000     0.959020000000     0.202950000000    -0.162998   
N13      N      0.543110000000     0.828250000000     0.894450000000    -0.168349   
N14      N      0.531410000000     0.723160000000     0.909720000000    -0.162321   
N15      N      0.464270000000     0.260510000000     0.041390000000    -0.169001   
N16      N      0.439580000000     0.148440000000     0.060030000000    -0.164056   
N17      N      0.832660000000     0.251880000000     0.499760000000    -0.170395   
N18      N      0.710520000000     0.201930000000     0.478240000000    -0.169351   
N19      N      0.280320000000     0.768100000000     0.513410000000    -0.170645   
N20      N      0.164890000000     0.691450000000     0.543700000000    -0.171432   
N21      N      0.793460000000     0.526030000000     0.444250000000    -0.170401   
N22      N      0.700860000000     0.530300000000     0.385130000000    -0.166039   
N23      N      0.285960000000     0.431270000000     0.595120000000    -0.169783   
N24      N      0.210980000000     0.446340000000     0.522220000000    -0.166958   
N25      N      0.983510000000     0.544840000000     0.778670000000    -0.169917   
N26      N      0.994420000000     0.567810000000     0.680230000000    -0.164813   
N27      N      0.015720000000     0.436790000000     0.210490000000    -0.165261   
N28      N      0.011300000000     0.413140000000     0.309000000000    -0.166252   
N29      N      0.825140000000     0.278880000000     0.897240000000    -0.166537   
N30      N      0.719430000000     0.176780000000     0.895160000000    -0.16246    
N31      N      0.148050000000     0.708510000000     0.075450000000    -0.168399   
N32      N      0.260830000000     0.802730000000     0.060540000000    -0.162178   
N33      N      0.789300000000     0.448940000000     0.067270000000    -0.169902   
N34      N      0.692490000000     0.450380000000     0.007630000000    -0.166283   
N35      N      0.196840000000     0.538630000000     0.898410000000    -0.174379   
N36      N      0.294780000000     0.537800000000     0.958350000000    -0.162063   
N37      N      0.739230000000     0.805310000000     0.542660000000    -0.165162   
N38      N      0.629570000000     0.707990000000     0.551470000000    -0.165114   
N39      N      0.241850000000     0.158720000000     0.438490000000    -0.16984    
N40      N      0.358020000000     0.251160000000     0.430710000000    -0.164236   
N41      N      0.741990000000     0.955880000000     0.410950000000    -0.168569   
N42      N      0.623250000000     0.922030000000     0.379290000000    -0.168612   
N43      N      0.229610000000     0.004320000000     0.553520000000    -0.166362   
N44      N      0.349150000000     0.027450000000     0.578750000000    -0.169662   
N45      N      0.023470000000     0.812600000000     0.396690000000    -0.16579    
N46      N      0.013520000000     0.706510000000     0.405030000000    -0.159288   
N47      N      0.959070000000     0.155210000000     0.582920000000    -0.165897   
N48      N      0.975370000000     0.263960000000     0.581250000000    -0.15872    
N49      N      0.892220000000     0.921470000000     0.785220000000    -0.169255   
N50      N      0.897870000000     0.924850000000     0.685980000000    -0.163392   
N51      N      0.073420000000     0.036970000000     0.279410000000    -0.168217   
N52      N      0.111330000000     0.060090000000     0.186660000000    -0.165475   
N53      N      0.682010000000     0.711730000000     0.049520000000    -0.168424   
N54      N      0.774200000000     0.801810000000     0.000400000000    -0.166732   
N55      N      0.319180000000     0.271900000000     0.912000000000    -0.17036    
N56      N      0.228430000000     0.184780000000     0.965800000000    -0.16561    
N57      N      0.886390000000     0.101770000000     0.071890000000    -0.167512   
N58      N      0.762220000000     0.045910000000     0.046580000000    -0.160734   
N59      N      0.114500000000     0.871190000000     0.914500000000    -0.168222   
N60      N      0.238990000000     0.922590000000     0.939190000000    -0.160917   
N61      N      0.952770000000     0.754040000000     0.030260000000    -0.170796   
N62      N      0.912770000000     0.643070000000     0.044270000000    -0.167489   
N63      N      0.065620000000     0.322560000000     0.944280000000    -0.170413   
N64      N      0.069120000000     0.229010000000     0.934080000000    -0.165191   
O1       O      0.184360000000     0.098340000000     0.999530000000    -0.390858   
O2       O      0.141380000000     0.148600000000     0.004830000000    -0.343917   
O3       O      0.927290000000     0.983160000000     0.840560000000    -0.375936   
O4       O      0.923080000000     0.900890000000     0.859920000000    -0.381458   
O5       O      0.019790000000     0.141250000000     0.914000000000    -0.372076   
O6       O      0.058080000000     0.161020000000     0.989490000000    -0.365437   
O7       O      0.121740000000     0.949200000000     0.932610000000    -0.381471   
O8       O      0.030430000000     0.877860000000     0.917930000000    -0.354415   
O9       O      0.144470000000     0.074830000000     0.879530000000    -0.368817   
O10      O      0.213290000000     0.037240000000     0.960080000000    -0.511825   
O11      O      0.025500000000     0.091840000000     0.831670000000    -0.524657   
O12      O      0.893950000000     0.060050000000     0.879640000000    -0.347665   
O13      O      0.066120000000     0.076750000000     0.951720000000    -0.497212   
O14      O      0.025930000000     0.990540000000     0.905810000000    -0.631513   
O15      O      0.992960000000     0.839610000000     0.056900000000    -0.374428   
O16      O      0.953820000000     0.823070000000     0.981430000000    -0.374082   
O17      O      0.880850000000     0.025480000000     0.051270000000    -0.392193   
O18      O      0.971480000000     0.100240000000     0.059030000000    -0.36295    
O19      O      0.822170000000     0.887180000000     0.964240000000    -0.362911   
O20      O      0.859700000000     0.832290000000     0.962020000000    -0.357927   
O21      O      0.072610000000     0.995790000000     0.133290000000    -0.379177   
O22      O      0.079250000000     0.078970000000     0.112380000000    -0.383416   
O23      O      0.969190000000     0.883340000000     0.137230000000    -0.5255     
O24      O      0.109520000000     0.922660000000     0.097370000000    -0.347766   
O25      O      0.852950000000     0.898460000000     0.089900000000    -0.3692     
O26      O      0.788990000000     0.943640000000     0.011150000000    -0.518293   
O27      O      0.935700000000     0.902710000000     0.021810000000    -0.629689   
O28      O      0.976710000000     0.989380000000     0.066300000000    -0.493942   
O29      O      0.049290000000     0.936380000000     0.991100000000    -0.497797   
O30      O      0.952310000000     0.043780000000     0.981120000000    -0.633706   
O31      O      0.091230000000     0.023240000000     0.035540000000    -0.625186   
O32      O      0.910100000000     0.956150000000     0.937610000000    -0.48312    
O33      O      0.968560000000     0.840840000000     0.429440000000    -0.381084   
O34      O      0.065670000000     0.901130000000     0.419490000000    -0.36312    
O35      O      0.839190000000     0.990420000000     0.396920000000    -0.372536   
O36      O      0.811710000000     0.972000000000     0.473350000000    -0.364308   
O37      O      0.005290000000     0.025160000000     0.330740000000    -0.374487   
O38      O      0.077800000000     0.003060000000     0.355930000000    -0.369504   
O39      O      0.826480000000     0.833490000000     0.509830000000    -0.379516   
O40      O      0.812780000000     0.894220000000     0.545110000000    -0.345848   
O41      O      0.847360000000     0.809560000000     0.424620000000    -0.34251    
O42      O      0.925500000000     0.801930000000     0.530930000000    -0.533302   
O43      O      0.880080000000     0.947390000000     0.332040000000    -0.525004   
O44      O      0.942720000000     0.086040000000     0.352920000000    -0.343669   
O45      O      0.973280000000     0.939290000000     0.413930000000    -0.496507   
O46      O      0.888740000000     0.936880000000     0.456200000000    -0.629467   
O47      O      0.964310000000     0.937860000000     0.633200000000    -0.378889   
O48      O      0.892940000000     0.961940000000     0.610340000000    -0.366335   
O49      O      0.151740000000     0.132050000000     0.465410000000    -0.370836   
O50      O      0.163720000000     0.074480000000     0.424310000000    -0.361135   
O51      O      0.009270000000     0.131470000000     0.538460000000    -0.375703   
O52      O      0.913260000000     0.070050000000     0.552100000000    -0.360073   
O53      O      0.136140000000     0.984710000000     0.568190000000    -0.368248   
O54      O      0.160600000000     0.993850000000     0.491960000000    -0.364138   
O55      O      0.090070000000     0.021290000000     0.636430000000    -0.526474   
O56      O      0.035320000000     0.885460000000     0.612690000000    -0.349307   
O57      O      0.128230000000     0.166630000000     0.536740000000    -0.331767   
O58      O      0.049600000000     0.165710000000     0.432250000000    -0.533378   
O59      O      0.000980000000     0.030610000000     0.552770000000    -0.628727   
O60      O      0.086090000000     0.032840000000     0.510470000000    -0.49343    
O61      O      0.934540000000     0.918860000000     0.544830000000    -0.494412   
O62      O      0.040190000000     0.052350000000     0.421430000000    -0.629641   
O63      O      0.024150000000     0.919820000000     0.504410000000    -0.631207   
O64      O      0.950100000000     0.050870000000     0.462280000000    -0.49477    
O65      O      0.054240000000     0.368600000000     0.999510000000    -0.372531   
O66      O      0.027280000000     0.378730000000     0.921480000000    -0.37713    
O67      O      0.847720000000     0.408870000000     0.077840000000    -0.382487   
O68      O      0.888860000000     0.496290000000     0.089250000000    -0.34405    
O69      O      0.862530000000     0.326420000000     0.961760000000    -0.376023   
O70      O      0.910200000000     0.362420000000     0.893380000000    -0.363088   
O71      O      0.038130000000     0.430130000000     0.136730000000    -0.371033   
O72      O      0.006880000000     0.490480000000     0.146930000000    -0.382197   
O73      O      0.997450000000     0.332280000000     0.090120000000    -0.339291   
O74      O      0.138200000000     0.443700000000     0.076530000000    -0.52565    
O75      O      0.800700000000     0.316480000000     0.034340000000    -0.517006   
O76      O      0.798260000000     0.410470000000     0.956780000000    -0.35921    
O77      O      0.961080000000     0.392230000000     0.990400000000    -0.490613   
O78      O      0.955310000000     0.432670000000     0.065040000000    -0.622799   
O79      O      0.136560000000     0.644020000000     0.030780000000    -0.394329   
O80      O      0.074910000000     0.618890000000     0.090770000000    -0.354454   
O81      O      0.959390000000     0.550250000000     0.852090000000    -0.371766   
O82      O      0.987250000000     0.487870000000     0.841220000000    -0.378911   
O83      O      0.926690000000     0.597380000000     0.990490000000    -0.374707   
O84      O      0.961280000000     0.595270000000     0.067410000000    -0.370932   
O85      O      0.130300000000     0.568410000000     0.902980000000    -0.365193   
O86      O      0.096070000000     0.483670000000     0.885810000000    -0.355648   
O87      O      0.183830000000     0.659530000000     0.952380000000    -0.516731   
O88      O      0.195110000000     0.561650000000     0.021730000000    -0.363586   
O89      O      0.993000000000     0.642990000000     0.901500000000    -0.341682   
O90      O      0.852600000000     0.529990000000     0.906390000000    -0.525175   
O91      O      0.028920000000     0.581420000000     0.996430000000    -0.628893   
O92      O      0.034030000000     0.541140000000     0.922890000000    -0.481078   
O93      O      0.075300000000     0.518890000000     0.056690000000    -0.495773   
O94      O      0.914510000000     0.455360000000     0.930410000000    -0.627834   
O95      O      0.076940000000     0.476780000000     0.979710000000    -0.626494   
O96      O      0.914490000000     0.496320000000     0.008070000000    -0.488563   
O97      O      0.960420000000     0.337970000000     0.587040000000    -0.347112   
O98      O      0.010970000000     0.336700000000     0.526920000000    -0.360729   
O99      O      0.825510000000     0.474170000000     0.493120000000    -0.39337    
O100     O      0.884160000000     0.563650000000     0.486920000000    -0.356758   
O101     O      0.851360000000     0.338560000000     0.492510000000    -0.370105   
O102     O      0.920070000000     0.320540000000     0.468650000000    -0.354491   
O103     O      0.991380000000     0.504570000000     0.637060000000    -0.367642   
O104     O      0.958400000000     0.562770000000     0.602920000000    -0.379072   
O105     O      0.878490000000     0.384300000000     0.628320000000    -0.362295   
O106     O      0.020020000000     0.416020000000     0.659190000000    -0.526951   
O107     O      0.770900000000     0.369550000000     0.462470000000    -0.521293   
O108     O      0.843510000000     0.427900000000     0.383640000000    -0.364715   
O109     O      0.935500000000     0.398900000000     0.513800000000    -0.492962   
O110     O      0.911500000000     0.468700000000     0.542370000000    -0.607483   
O111     O      0.106990000000     0.604620000000     0.574100000000    -0.362203   
O112     O      0.063230000000     0.649490000000     0.537710000000    -0.359451   
O113     O      0.020710000000     0.479500000000     0.350730000000    -0.381376   
O114     O      0.030000000000     0.407770000000     0.388790000000    -0.38051    
O115     O      0.028000000000     0.633020000000     0.399450000000    -0.356051   
O116     O      0.986250000000     0.638610000000     0.463790000000    -0.35438    
O117     O      0.167190000000     0.497300000000     0.523130000000    -0.397701   
O118     O      0.113790000000     0.416360000000     0.491310000000    -0.360095   
O119     O      0.190790000000     0.613600000000     0.474760000000    -0.537731   
O120     O      0.191680000000     0.565960000000     0.586900000000    -0.344874   
O121     O      0.109070000000     0.598120000000     0.361940000000    -0.354678   
O122     O      0.956500000000     0.543340000000     0.336060000000    -0.523797   
O123     O      0.057760000000     0.579730000000     0.476380000000    -0.634747   
O124     O      0.077550000000     0.504690000000     0.450700000000    -0.496608   
O125     O      0.032470000000     0.526320000000     0.566860000000    -0.460408   
O126     O      0.955560000000     0.444420000000     0.423680000000    -0.614364   
O127     O      0.052930000000     0.450750000000     0.545030000000    -0.623599   
O128     O      0.937760000000     0.523700000000     0.446770000000    -0.497343   
O129     O      0.333850000000     0.958250000000     0.916390000000    -0.371108   
O130     O      0.317650000000     0.949940000000     0.994820000000    -0.36111    
O131     O      0.493370000000     0.846290000000     0.943830000000    -0.380879   
O132     O      0.584650000000     0.913300000000     0.923660000000    -0.363193   
O133     O      0.344730000000     0.834390000000     0.020430000000    -0.367738   
O134     O      0.337900000000     0.888510000000     0.069220000000    -0.364864   
O135     O      0.501660000000     0.013230000000     0.838150000000    -0.366205   
O136     O      0.581190000000     0.000310000000     0.860630000000    -0.364733   
O137     O      0.380950000000     0.927540000000     0.845230000000    -0.342048   
O138     O      0.425350000000     0.063180000000     0.862780000000    -0.52989    
O139     O      0.381040000000     0.788680000000     0.963260000000    -0.515141   
O140     O      0.465850000000     0.818780000000     0.060810000000    -0.35525    
O141     O      0.400400000000     0.927350000000     0.972510000000    -0.491827   
O142     O      0.485330000000     0.936520000000     0.927490000000    -0.62378    
O143     O      0.637490000000     0.145220000000     0.937890000000    -0.372526   
O144     O      0.667000000000     0.086140000000     0.920280000000    -0.358891   
O145     O      0.505480000000     0.968310000000     0.146710000000    -0.372591   
O146     O      0.423190000000     0.976810000000     0.124560000000    -0.366632   
O147     O      0.667390000000     0.009520000000     0.069300000000    -0.375723   
O148     O      0.683760000000     0.018630000000     0.990810000000    -0.367069   
O149     O      0.508660000000     0.127160000000     0.044560000000    -0.36652    
O150     O      0.412650000000     0.060900000000     0.049610000000    -0.376757   
O151     O      0.630390000000     0.178620000000     0.024520000000    -0.521689   
O152     O      0.521650000000     0.154500000000     0.931550000000    -0.36076    
O153     O      0.626140000000     0.048530000000     0.136530000000    -0.335374   
O154     O      0.572210000000     0.909660000000     0.122660000000    -0.523526   
O155     O      0.600870000000     0.048120000000     0.011450000000    -0.630587   
O156     O      0.516250000000     0.037960000000     0.056960000000    -0.490539   
O157     O      0.540080000000     0.049400000000     0.924220000000    -0.492203   
O158     O      0.462090000000     0.923680000000     0.061230000000    -0.629661   
O159     O      0.450100000000     0.041040000000     0.969940000000    -0.624424   
O160     O      0.550530000000     0.931680000000     0.014640000000    -0.487994   
O161     O      0.453810000000     0.107820000000     0.435980000000    -0.376588   
O162     O      0.511940000000     0.134810000000     0.503870000000    -0.370441   
O163     O      0.372120000000     0.833550000000     0.536280000000    -0.352694   
O164     O      0.355600000000     0.816330000000     0.461040000000    -0.364303   
O165     O      0.403080000000     0.984490000000     0.598710000000    -0.386836   
O166     O      0.447460000000     0.067520000000     0.563920000000    -0.345151   
O167     O      0.406940000000     0.965110000000     0.347330000000    -0.363574   
O168     O      0.417780000000     0.889640000000     0.363690000000    -0.372556   
O169     O      0.335660000000     0.000230000000     0.405430000000    -0.365      
O170     O      0.464370000000     0.080350000000     0.346830000000    -0.522255   
O171     O      0.289750000000     0.909170000000     0.509290000000    -0.541062   
O172     O      0.324170000000     0.872120000000     0.604630000000    -0.352172   
O173     O      0.430880000000     0.012800000000     0.499810000000    -0.491735   
O174     O      0.391600000000     0.927780000000     0.454970000000    -0.619202   
O175     O      0.571310000000     0.967750000000     0.377920000000    -0.36869    
O176     O      0.528730000000     0.881590000000     0.406110000000    -0.361269   
O177     O      0.585650000000     0.993850000000     0.632230000000    -0.375959   
O178     O      0.569540000000     0.066150000000     0.615500000000    -0.379167   
O179     O      0.525540000000     0.842700000000     0.548680000000    -0.355264   
O180     O      0.470980000000     0.817580000000     0.479070000000    -0.373928   
O181     O      0.653690000000     0.119770000000     0.451180000000    -0.396736   
O182     O      0.626400000000     0.139030000000     0.516170000000    -0.372943   
O183     O      0.688580000000     0.027690000000     0.463680000000    -0.535603   
O184     O      0.646160000000     0.080270000000     0.371400000000    -0.338845   
O185     O      0.644920000000     0.945400000000     0.579020000000    -0.352771   
O186     O      0.513020000000     0.875820000000     0.636870000000    -0.523193   
O187     O      0.553320000000     0.937960000000     0.482320000000    -0.629937   
O188     O      0.591550000000     0.023970000000     0.525280000000    -0.502347   
O189     O      0.498700000000     0.979890000000     0.405940000000    -0.482331   
O190     O      0.484050000000     0.971970000000     0.575250000000    -0.623545   
O191     O      0.535690000000     0.065380000000     0.450830000000    -0.631453   
O192     O      0.448880000000     0.886940000000     0.529330000000    -0.456208   
O193     O      0.464640000000     0.337650000000     0.060730000000    -0.367613   
O194     O      0.487560000000     0.332650000000     0.987220000000    -0.3649     
O195     O      0.332620000000     0.482020000000     0.985000000000    -0.391652   
O196     O      0.393400000000     0.571240000000     0.986690000000    -0.350881   
O197     O      0.344550000000     0.358090000000     0.922890000000    -0.387023   
O198     O      0.417560000000     0.336940000000     0.918820000000    -0.360917   
O199     O      0.484000000000     0.486640000000     0.122750000000    -0.362671   
O200     O      0.473050000000     0.561190000000     0.098830000000    -0.377758   
O201     O      0.359840000000     0.369520000000     0.084200000000    -0.364187   
O202     O      0.485440000000     0.390850000000     0.140110000000    -0.517659   
O203     O      0.276800000000     0.390310000000     0.939740000000    -0.511887   
O204     O      0.359970000000     0.481650000000     0.865890000000    -0.353517   
O205     O      0.426890000000     0.398880000000     0.985600000000    -0.503269   
O206     O      0.416320000000     0.474220000000     0.024030000000    -0.614688   
O207     O      0.649420000000     0.622160000000     0.047800000000    -0.387104   
O208     O      0.581400000000     0.651380000000     0.037180000000    -0.359281   
O209     O      0.571700000000     0.523030000000     0.844730000000    -0.381187   
O210     O      0.546200000000     0.434180000000     0.864460000000    -0.382187   
O211     O      0.542790000000     0.650510000000     0.898700000000    -0.367168   
O212     O      0.501470000000     0.651300000000     0.965250000000    -0.358831   
O213     O      0.652660000000     0.499800000000     0.964620000000    -0.364717   
O214     O      0.600040000000     0.410720000000     0.967680000000    -0.355622   
O215     O      0.719140000000     0.598540000000     0.013880000000    -0.528082   
O216     O      0.638400000000     0.500090000000     0.091310000000    -0.370853   
O217     O      0.621880000000     0.632390000000     0.858220000000    -0.332734   
O218     O      0.474540000000     0.560800000000     0.823250000000    -0.52532    
O219     O      0.570280000000     0.586170000000     0.971560000000    -0.632639   
O220     O      0.580920000000     0.512240000000     0.936460000000    -0.472068   
O221     O      0.532540000000     0.519080000000     0.055750000000    -0.48164    
O222     O      0.462490000000     0.465200000000     0.899520000000    -0.625711   
O223     O      0.545790000000     0.442750000000     0.022690000000    -0.629256   
O224     O      0.450920000000     0.542630000000     0.935850000000    -0.490219   
O225     O      0.552230000000     0.359280000000     0.503590000000    -0.375766   
O226     O      0.533960000000     0.364880000000     0.423640000000    -0.364445   
O227     O      0.336300000000     0.394650000000     0.567310000000    -0.381649   
O228     O      0.386750000000     0.482100000000     0.585220000000    -0.358543   
O229     O      0.402600000000     0.323230000000     0.475590000000    -0.344104   
O230     O      0.418160000000     0.340100000000     0.398530000000    -0.361277   
O231     O      0.552490000000     0.441820000000     0.628970000000    -0.383298   
O232     O      0.527080000000     0.506870000000     0.635990000000    -0.379925   
O233     O      0.499640000000     0.335760000000     0.594770000000    -0.345829   
O234     O      0.641760000000     0.441490000000     0.571180000000    -0.529149   
O235     O      0.308550000000     0.304970000000     0.535550000000    -0.523362   
O236     O      0.293540000000     0.369080000000     0.446810000000    -0.365732   
O237     O      0.466840000000     0.385730000000     0.488370000000    -0.471207   
O238     O      0.456470000000     0.428670000000     0.561260000000    -0.626371   
O239     O      0.625780000000     0.642180000000     0.512090000000    -0.389486   
O240     O      0.564880000000     0.618000000000     0.572600000000    -0.356716   
O241     O      0.458710000000     0.532400000000     0.342250000000    -0.37561    
O242     O      0.493630000000     0.474070000000     0.334690000000    -0.377658   
O243     O      0.427010000000     0.591680000000     0.469610000000    -0.374722   
O244     O      0.450440000000     0.587190000000     0.548920000000    -0.36578    
O245     O      0.632410000000     0.556200000000     0.395080000000    -0.368922   
O246     O      0.600840000000     0.469190000000     0.384640000000    -0.360621   
O247     O      0.678180000000     0.651280000000     0.436370000000    -0.518907   
O248     O      0.693430000000     0.563020000000     0.513340000000    -0.363965   
O249     O      0.453690000000     0.612260000000     0.377470000000    -0.333447   
O250     O      0.336840000000     0.489220000000     0.402850000000    -0.52937    
O251     O      0.520790000000     0.570500000000     0.481710000000    -0.630345   
O252     O      0.528620000000     0.526320000000     0.412920000000    -0.478767   
O253     O      0.573660000000     0.517520000000     0.546760000000    -0.497383   
O254     O      0.412870000000     0.436450000000     0.423290000000    -0.623284   
O255     O      0.578590000000     0.471040000000     0.474490000000    -0.631113   
O256     O      0.407770000000     0.483280000000     0.499300000000    -0.494235   
S1       S      0.649780000000     0.448330000000     0.708750000000    -0.0160328  
S2       S      0.603150000000     0.551270000000     0.181490000000    -0.0184444  
S3       S      0.508050000000     0.752630000000     0.612800000000    -0.00982426 
S4       S      0.475280000000     0.187450000000     0.558070000000     0.00613974 
S5       S      0.581740000000     0.133330000000     0.680920000000    -0.00593868 
S6       S      0.318490000000     0.951790000000     0.274110000000    -0.0126435  
S7       S      0.658710000000     0.875720000000     0.896210000000    -0.0121794  
S8       S      0.524300000000     0.238760000000     0.991800000000     0.011102   
S9       S      0.818620000000     0.274210000000     0.582670000000     0.00437303 
S10      S      0.236870000000     0.792060000000     0.432770000000    -0.0234933  
S11      S      0.697210000000     0.438840000000     0.462100000000    -0.0151201  
S12      S      0.329780000000     0.530850000000     0.618520000000    -0.000338635
S13      S      0.010850000000     0.645070000000     0.769610000000     0.00154903 
S14      S      0.910530000000     0.427860000000     0.205760000000    -0.0156697  
S15      S      0.769580000000     0.329030000000     0.858350000000    -0.0384072  
S16      S      0.221010000000     0.697460000000     0.138980000000    -0.0220809  
S17      S      0.719420000000     0.354550000000     0.105780000000    -0.0253492  
S18      S      0.243170000000     0.492040000000     0.862040000000    -0.00654932 
S19      S      0.745900000000     0.818950000000     0.631410000000    -0.0037664  
S20      S      0.254680000000     0.162550000000     0.530260000000    -0.0240342  
S21      S      0.682650000000     0.915680000000     0.485800000000     0.00309998 
S22      S      0.192460000000     0.935380000000     0.628060000000    -0.000170621
S23      S      0.112890000000     0.819610000000     0.449380000000    -0.0176005  
S24      S      0.070200000000     0.190380000000     0.615370000000    -0.0217854  
S25      S      0.822720000000     0.824160000000     0.764730000000    -0.00945963 
S26      S      0.069450000000     0.127270000000     0.274380000000    -0.0308131  
S27      S      0.690040000000     0.792970000000     0.085100000000    -0.0254291  
S28      S      0.231110000000     0.223390000000     0.854050000000    -0.0298596  
S29      S      0.910820000000     0.160000000000     0.991690000000    -0.0229138  
S30      S      0.129780000000     0.902490000000     0.825860000000    -0.0269237  
S31      S      0.970600000000     0.722650000000     0.956520000000     0.0166754  
S32      S      0.116080000000     0.348890000000     0.865810000000    -0.0295493  
Zr1      Zr     0.113530000000     0.023490000000     0.956070000000     1.38675    
Zr2      Zr     0.977240000000     0.043680000000     0.903810000000     1.37518    
Zr3      Zr     0.024830000000     0.935520000000     0.069100000000     1.38468    
Zr4      Zr     0.888270000000     0.956110000000     0.016770000000     1.37641    
Zr5      Zr     0.042210000000     0.076970000000     0.030100000000     1.36551    
Zr6      Zr     0.959920000000     0.903640000000     0.942490000000     1.37009    
Zr7      Zr     0.923370000000     0.873940000000     0.476970000000     1.38541    
Zr8      Zr     0.939400000000     0.004100000000     0.394700000000     1.37665    
Zr9      Zr     0.034810000000     0.966210000000     0.571790000000     1.38902    
Zr10     Zr     0.051340000000     0.096220000000     0.489810000000     1.38218    
Zr11     Zr     0.074730000000     0.987340000000     0.441790000000     1.36113    
Zr12     Zr     0.899190000000     0.983010000000     0.524780000000     1.34713    
Zr13     Zr     0.038400000000     0.423980000000     0.050940000000     1.37736    
Zr14     Zr     0.878870000000     0.402460000000     0.003110000000     1.37304    
Zr15     Zr     0.111110000000     0.570560000000     0.983700000000     1.3781     
Zr16     Zr     0.950960000000     0.549730000000     0.937050000000     1.38595    
Zr17     Zr     0.998650000000     0.446610000000     0.918340000000     1.371      
Zr18     Zr     0.991740000000     0.528480000000     0.069190000000     1.3653     
Zr19     Zr     0.970420000000     0.432220000000     0.587280000000     1.36841    
Zr20     Zr     0.876220000000     0.430640000000     0.467610000000     1.38575    
Zr21     Zr     0.113820000000     0.545040000000     0.523900000000     1.38799    
Zr22     Zr     0.019200000000     0.539930000000     0.404110000000     1.3749     
Zr23     Zr     0.014360000000     0.409760000000     0.471750000000     1.35745    
Zr24     Zr     0.975810000000     0.563710000000     0.520220000000     1.36608    
Zr25     Zr     0.438750000000     0.990410000000     0.905450000000     1.37504    
Zr26     Zr     0.447450000000     0.874380000000     0.995810000000     1.36839    
Zr27     Zr     0.552110000000     0.099840000000     0.988490000000     1.37209    
Zr28     Zr     0.563810000000     0.984310000000     0.078460000000     1.37608    
Zr29     Zr     0.414140000000     0.977370000000     0.038310000000     1.35866    
Zr30     Zr     0.588200000000     0.995960000000     0.947070000000     1.35506    
Zr31     Zr     0.437880000000     0.017990000000     0.417180000000     1.36876    
Zr32     Zr     0.387060000000     0.924050000000     0.539050000000     1.35755    
Zr33     Zr     0.595230000000     0.025560000000     0.441690000000     1.38727    
Zr34     Zr     0.545640000000     0.934750000000     0.564990000000     1.36556    
Zr35     Zr     0.528870000000     0.061180000000     0.534370000000     1.37501    
Zr36     Zr     0.455280000000     0.890740000000     0.445530000000     1.37359    
Zr37     Zr     0.462640000000     0.424520000000     0.062970000000     1.38073    
Zr38     Zr     0.382690000000     0.448820000000     0.944380000000     1.38216    
Zr39     Zr     0.614470000000     0.536750000000     0.014990000000     1.38169    
Zr40     Zr     0.533350000000     0.559780000000     0.894790000000     1.3847     
Zr41     Zr     0.509660000000     0.417290000000     0.943330000000     1.36774    
Zr42     Zr     0.487660000000     0.569930000000     0.013980000000     1.34845    
Zr43     Zr     0.541900000000     0.422950000000     0.547430000000     1.40146    
Zr44     Zr     0.381580000000     0.390630000000     0.499480000000     1.35963    
Zr45     Zr     0.606720000000     0.564280000000     0.471940000000     1.37845    
Zr46     Zr     0.441320000000     0.529930000000     0.425070000000     1.37412    
Zr47     Zr     0.501580000000     0.432370000000     0.413270000000     1.35716    
Zr48     Zr     0.487480000000     0.523720000000     0.557470000000     1.35971    


