data_structure

_audit_creation_method RASPA-1.0
_audit_creation_date 2023-6-4
_audit_author_name 'Poobodin Mano'

_cell_length_a    26.4934
_cell_length_b    28.3361
_cell_length_c    28.8322
_cell_angle_alpha 82.7314
_cell_angle_beta  96.3441
_cell_angle_gamma 119.442
_cell_volume      18668.8

_symmetry_cell_setting          triclinic
_symmetry_space_group_name_Hall 'P 1'
_symmetry_space_group_name_H-M  'P 1'
_symmetry_Int_Tables_number     1

_symmetry_equiv_pos_as_xyz 'x,y,z'

loop_
_atom_site_label
_atom_site_type_symbol
_atom_site_fract_x
_atom_site_fract_y
_atom_site_fract_z
_atom_site_charge
Br1      Br     0.387180000000     0.360560000000     0.691610000000    -0.223763   
Br2      Br     0.444310000000     0.379890000000     0.278650000000    -0.231285   
Br3      Br     0.477070000000     0.752170000000     0.592960000000    -0.234345   
Br4      Br     0.531550000000     0.240140000000     0.370620000000    -0.237519   
Br5      Br     0.656070000000     0.987910000000     0.696910000000    -0.209004   
Br6      Br     0.335420000000     0.880650000000     0.285630000000    -0.219043   
Br7      Br     0.558980000000     0.794820000000     0.062680000000    -0.232222   
Br8      Br     0.366350000000     0.125050000000     0.921350000000    -0.255071   
Br9      Br     0.849530000000     0.210820000000     0.425450000000    -0.244038   
Br10     Br     0.211140000000     0.829670000000     0.405910000000    -0.232011   
Br11     Br     0.703720000000     0.463870000000     0.543450000000    -0.251902   
Br12     Br     0.227930000000     0.528970000000     0.366830000000    -0.24916    
Br13     Br     0.896150000000     0.542260000000     0.753290000000    -0.22737    
Br14     Br     0.877610000000     0.480210000000     0.170680000000    -0.22212    
Br15     Br     0.754910000000     0.315600000000     0.826590000000    -0.247162   
Br16     Br     0.207940000000     0.624730000000     0.123230000000    -0.231911   
Br17     Br     0.709010000000     0.364460000000     0.083420000000    -0.235343   
Br18     Br     0.255760000000     0.613580000000     0.861040000000    -0.243959   
Br19     Br     0.818420000000     0.759590000000     0.599540000000    -0.247803   
Br20     Br     0.250900000000     0.162020000000     0.540880000000    -0.237341   
Br21     Br     0.796820000000     0.042110000000     0.325830000000    -0.228349   
Br22     Br     0.272480000000     0.078370000000     0.445420000000    -0.227878   
Br23     Br     0.955570000000     0.805180000000     0.317930000000    -0.231207   
Br24     Br     0.072010000000     0.309500000000     0.622880000000    -0.242293   
Br25     Br     0.805450000000     0.961160000000     0.769050000000    -0.213159   
Br26     Br     0.148900000000     0.005870000000     0.188750000000    -0.229212   
Br27     Br     0.831290000000     0.751560000000     0.079880000000    -0.272387   
Br28     Br     0.242720000000     0.281950000000     0.820060000000    -0.230798   
Br29     Br     0.837380000000     0.096220000000     0.003460000000    -0.282689   
Br30     Br     0.192330000000     0.939600000000     0.994170000000    -0.228536   
Br31     Br     0.856680000000     0.642960000000     0.921560000000    -0.257765   
Br32     Br     0.046480000000     0.275860000000     0.071590000000    -0.234892   
C1       C      0.123840000000     0.151870000000     0.962200000000     0.363707   
C2       C      0.894500000000     0.922220000000     0.823730000000     0.39587    
C3       C      0.973200000000     0.147670000000     0.951590000000     0.404723   
C4       C      0.075500000000     0.922090000000     0.896460000000     0.385307   
C5       C      0.954340000000     0.801830000000     0.015190000000     0.403483   
C6       C      0.890280000000     0.031200000000     0.077750000000     0.381809   
C7       C      0.808240000000     0.803040000000     0.983060000000     0.399107   
C8       C      0.051470000000     0.031400000000     0.135160000000     0.406408   
C9       C      0.016670000000     0.869930000000     0.408850000000     0.397825   
C10      C      0.809300000000     0.989410000000     0.430910000000     0.394634   
C11      C      0.050210000000     0.033780000000     0.323560000000     0.392425   
C12      C      0.802020000000     0.850000000000     0.533660000000     0.385783   
C13      C      0.932470000000     0.953810000000     0.641350000000     0.388097   
C14      C      0.182060000000     0.135420000000     0.444050000000     0.398096   
C15      C      0.958920000000     0.119960000000     0.556470000000     0.38392    
C16      C      0.179140000000     0.008420000000     0.526740000000     0.397158   
C17      C      0.035390000000     0.340550000000     0.970330000000     0.398778   
C18      C      0.825320000000     0.464510000000     0.042580000000     0.409216   
C19      C      0.854130000000     0.314560000000     0.905130000000     0.40265    
C20      C      0.980890000000     0.461130000000     0.145500000000     0.400882   
C21      C      0.114110000000     0.641460000000     0.060320000000     0.398105   
C22      C      0.975770000000     0.492670000000     0.809580000000     0.410378   
C23      C      0.959390000000     0.635890000000     0.980380000000     0.413838   
C24      C      0.146460000000     0.504230000000     0.902600000000     0.398605   
C25      C      0.986170000000     0.318370000000     0.538610000000     0.391946   
C26      C      0.850190000000     0.531110000000     0.518580000000     0.39885    
C27      C      0.833120000000     0.313300000000     0.450550000000     0.405303   
C28      C      0.026020000000     0.547530000000     0.639090000000     0.396759   
C29      C      0.140610000000     0.655060000000     0.523660000000     0.371879   
C30      C      0.955840000000     0.435000000000     0.329460000000     0.396313   
C31      C      0.993240000000     0.662910000000     0.434070000000     0.379343   
C32      C      0.128330000000     0.447480000000     0.435340000000     0.409759   
C33      C      0.291050000000     0.938330000000     0.929530000000     0.391044   
C34      C      0.559690000000     0.859540000000     0.963730000000     0.41077    
C35      C      0.308780000000     0.829830000000     0.048380000000     0.38028    
C36      C      0.552970000000     0.003720000000     0.834720000000     0.392678   
C37      C      0.664110000000     0.121910000000     0.915950000000     0.375894   
C38      C      0.436830000000     0.992770000000     0.135570000000     0.389226   
C39      C      0.676300000000     0.011310000000     0.048350000000     0.392068   
C40      C      0.424850000000     0.102030000000     0.014730000000     0.414356   
C41      C      0.539030000000     0.179440000000     0.475460000000     0.398658   
C42      C      0.331240000000     0.839180000000     0.446410000000     0.410675   
C43      C      0.390280000000     0.043980000000     0.567180000000     0.393766   
C44      C      0.453130000000     0.977590000000     0.321150000000     0.407033   
C45      C      0.604230000000     0.944700000000     0.392030000000     0.399361   
C46      C      0.559330000000     0.017830000000     0.648090000000     0.404131   
C47      C      0.497940000000     0.823910000000     0.492090000000     0.404065   
C48      C      0.673890000000     0.142070000000     0.529620000000     0.381609   
C49      C      0.437400000000     0.295760000000     0.009710000000     0.391214   
C50      C      0.324200000000     0.511510000000     0.995540000000     0.391182   
C51      C      0.334750000000     0.325570000000     0.909060000000     0.40566    
C52      C      0.443620000000     0.494050000000     0.132910000000     0.392163   
C53      C      0.618120000000     0.649970000000     0.038110000000     0.383352   
C54      C      0.515930000000     0.472330000000     0.820370000000     0.393913   
C55      C      0.498010000000     0.661830000000     0.942700000000     0.396814   
C56      C      0.623630000000     0.451840000000     0.946090000000     0.369754   
C57      C      0.502780000000     0.333550000000     0.491670000000     0.405678   
C58      C      0.314620000000     0.474530000000     0.525350000000     0.380128   
C59      C      0.378750000000     0.315730000000     0.433410000000     0.3759     
C60      C      0.466200000000     0.481680000000     0.647070000000     0.403742   
C61      C      0.604570000000     0.661780000000     0.552680000000     0.380236   
C62      C      0.489510000000     0.498520000000     0.313930000000     0.404521   
C63      C      0.429400000000     0.632050000000     0.470460000000     0.400943   
C64      C      0.647970000000     0.512740000000     0.420620000000     0.38116    
C65      C      0.546830000000     0.523360000000     0.743890000000    -0.0143725  
C66      C      0.491400000000     0.422470000000     0.749900000000    -0.0494314  
C67      C      0.494470000000     0.526980000000     0.718780000000    -0.0101512  
C68      C      0.439150000000     0.425620000000     0.723790000000     0.116398   
C69      C      0.453460000000     0.543930000000     0.201270000000    -0.0151202  
C70      C      0.414290000000     0.444000000000     0.210090000000    -0.0449538  
C71      C      0.504360000000     0.550350000000     0.236200000000    -0.0110348  
C72      C      0.467180000000     0.449460000000     0.241190000000     0.111859   
C73      C      0.441040000000     0.717580000000     0.430510000000    -0.0168714  
C74      C      0.413930000000     0.692550000000     0.513110000000    -0.0416991  
C75      C      0.502740000000     0.758890000000     0.446950000000    -0.00693315 
C76      C      0.475930000000     0.732500000000     0.530110000000     0.110228   
C77      C      0.520830000000     0.261150000000     0.532250000000    -0.0158222  
C78      C      0.482360000000     0.256430000000     0.448210000000    -0.045594   
C79      C      0.574740000000     0.262160000000     0.516020000000    -0.0102407  
C80      C      0.538450000000     0.261760000000     0.433600000000     0.115459   
C81      C      0.569600000000     0.067310000000     0.764300000000    -0.0107517  
C82      C      0.615790000000     0.008950000000     0.774300000000    -0.0424015  
C83      C      0.542500000000     0.048120000000     0.716590000000    -0.0107464  
C84      C      0.592790000000     0.989230000000     0.724950000000     0.110431   
C85      C      0.465290000000     0.043960000000     0.205320000000    -0.0101708  
C86      C      0.376320000000     0.953230000000     0.204140000000    -0.0466074  
C87      C      0.492410000000     0.022940000000     0.245900000000    -0.00999545 
C88      C      0.400950000000     0.931540000000     0.247900000000     0.110922   
C89      C      0.535760000000     0.755820000000     0.900630000000    -0.0189935  
C90      C      0.497170000000     0.733820000000     0.980920000000    -0.045198   
C91      C      0.588720000000     0.808980000000     0.918610000000    -0.0154775  
C92      C      0.556480000000     0.775760000000     0.999200000000     0.119789   
C93      C      0.405070000000     0.209530000000     0.061720000000    -0.0124222  
C94      C      0.383430000000     0.207260000000     0.976300000000    -0.045967   
C95      C      0.423680000000     0.165740000000     0.061450000000    -0.0131526  
C96      C      0.409550000000     0.171680000000     0.972180000000     0.113749   
C97      C      0.716620000000     0.239840000000     0.504090000000    -0.0203028  
C98      C      0.775680000000     0.192440000000     0.504050000000    -0.0506498  
C99      C      0.727520000000     0.257230000000     0.451790000000    -0.00683644 
C100     C      0.785320000000     0.211860000000     0.451490000000     0.109423   
C101     C      0.239030000000     0.695550000000     0.495880000000    -0.0153417  
C102     C      0.175740000000     0.738260000000     0.472020000000    -0.0442924  
C103     C      0.293360000000     0.750820000000     0.489110000000    -0.0106232  
C104     C      0.229230000000     0.793740000000     0.463070000000     0.111457   
C105     C      0.751350000000     0.573620000000     0.442060000000    -0.0106129  
C106     C      0.711920000000     0.471990000000     0.443400000000    -0.0505946  
C107     C      0.809520000000     0.574030000000     0.456460000000    -0.00451054 
C108     C      0.748130000000     0.476420000000     0.489890000000     0.125855   
C109     C      0.207860000000     0.419950000000     0.511550000000    -0.0124897  
C110     C      0.266680000000     0.508320000000     0.461790000000    -0.0508069  
C111     C      0.173880000000     0.393250000000     0.466500000000    -0.0153301  
C112     C      0.229990000000     0.478430000000     0.418790000000     0.115086   
C113     C      0.063650000000     0.534660000000     0.718420000000    -0.011893   
C114     C      0.000960000000     0.577740000000     0.705120000000    -0.0474902  
C115     C      0.014580000000     0.482420000000     0.740570000000    -0.0115231  
C116     C      0.951660000000     0.526390000000     0.728850000000     0.114721   
C117     C      0.963680000000     0.388450000000     0.265310000000    -0.0103609  
C118     C      0.902390000000     0.432700000000     0.253680000000    -0.0373993  
C119     C      0.998790000000     0.423730000000     0.223320000000    -0.0144697  
C120     C      0.936440000000     0.471150000000     0.212960000000     0.108641   
C121     C      0.770710000000     0.166310000000     0.903830000000    -0.0191157  
C122     C      0.708910000000     0.204470000000     0.861060000000    -0.0489437  
C123     C      0.821260000000     0.220610000000     0.882170000000    -0.00909813 
C124     C      0.753340000000     0.261010000000     0.875670000000     0.114815   
C125     C      0.208510000000     0.790810000000     0.076610000000    -0.0217157  
C126     C      0.256850000000     0.732440000000     0.074870000000    -0.046518   
C127     C      0.149330000000     0.738140000000     0.068590000000    -0.00958849 
C128     C      0.206860000000     0.693250000000     0.105720000000     0.114232   
C129     C      0.721260000000     0.506500000000     0.980220000000    -0.00985341 
C130     C      0.663850000000     0.407900000000     0.006320000000    -0.0449313  
C131     C      0.777840000000     0.505300000000     0.989900000000    -0.0109943  
C132     C      0.721030000000     0.406990000000     0.022690000000     0.116852   
C133     C      0.218690000000     0.468530000000     0.977770000000    -0.00785504 
C134     C      0.282210000000     0.566460000000     0.949950000000    -0.0441133  
C135     C      0.198200000000     0.454590000000     0.926960000000    -0.018219   
C136     C      0.254970000000     0.551480000000     0.899730000000     0.110773   
C137     C      0.641490000000     0.761080000000     0.553600000000    -0.018808   
C138     C      0.696770000000     0.715990000000     0.595290000000    -0.0430926  
C139     C      0.701700000000     0.813500000000     0.561540000000    -0.011724   
C140     C      0.748070000000     0.753040000000     0.564260000000     0.113244   
C141     C      0.328330000000     0.231680000000     0.390220000000    -0.0197401  
C142     C      0.336810000000     0.226090000000     0.476460000000    -0.043541   
C143     C      0.260750000000     0.196980000000     0.392080000000    -0.00921001 
C144     C      0.272260000000     0.204980000000     0.480390000000     0.11884    
C145     C      0.653570000000     0.892730000000     0.411730000000    -0.0176503  
C146     C      0.682370000000     0.961020000000     0.344730000000    -0.0407267  
C147     C      0.705730000000     0.930590000000     0.442670000000    -0.00674862 
C148     C      0.737680000000     0.001020000000     0.371830000000     0.11046    
C149     C      0.311310000000     0.040860000000     0.607930000000    -0.0132575  
C150     C      0.340390000000     0.091350000000     0.530920000000    -0.0461554  
C151     C      0.250680000000     0.001470000000     0.586370000000    -0.00884419 
C152     C      0.284750000000     0.047540000000     0.507080000000     0.116293   
C153     C      0.054400000000     0.759320000000     0.444310000000    -0.0220948  
C154     C      0.983980000000     0.731520000000     0.375640000000    -0.0454795  
C155     C      0.046650000000     0.808310000000     0.448250000000    -0.00769509 
C156     C      0.970940000000     0.778180000000     0.380620000000     0.114697   
C157     C      0.903610000000     0.168130000000     0.558480000000    -0.0133976  
C158     C      0.996910000000     0.198710000000     0.604890000000    -0.0429449  
C159     C      0.930090000000     0.221840000000     0.527680000000    -0.0134826  
C160     C      0.022460000000     0.256140000000     0.578460000000     0.111682   
C161     C      0.941510000000     0.913830000000     0.721090000000    -0.0111901  
C162     C      0.885280000000     0.965890000000     0.705200000000    -0.0465526  
C163     C      0.898350000000     0.876330000000     0.757980000000    -0.0155273  
C164     C      0.845200000000     0.928090000000     0.743920000000     0.110227   
C165     C      0.058520000000     0.088450000000     0.247750000000    -0.0125249  
C166     C      0.108750000000     0.033600000000     0.261980000000    -0.0428352  
C167     C      0.033820000000     0.067080000000     0.199870000000    -0.0103745  
C168     C      0.085630000000     0.009800000000     0.214210000000     0.111538   
C169     C      0.665070000000     0.733380000000     0.987670000000    -0.017714   
C170     C      0.711750000000     0.723600000000     0.064640000000    -0.0445476  
C171     C      0.712030000000     0.731270000000     0.962020000000    -0.0103155  
C172     C      0.760000000000     0.722960000000     0.039800000000     0.115104   
C173     C      0.223570000000     0.223790000000     0.980900000000    -0.0164127  
C174     C      0.179650000000     0.213280000000     0.897570000000    -0.0495259  
C175     C      0.278890000000     0.239290000000     0.955960000000    -0.013566   
C176     C      0.231130000000     0.270110000000     0.887030000000     0.115185   
C177     C      0.737820000000     0.971320000000     0.077730000000    -0.0113193  
C178     C      0.773640000000     0.071880000000     0.082700000000    -0.0380863  
C179     C      0.792960000000     0.985970000000     0.109470000000    -0.0110318  
C180     C      0.834270000000     0.082160000000     0.071370000000     0.112177   
C181     C      0.168590000000     0.948220000000     0.862860000000    -0.0153048  
C182     C      0.125630000000     0.867820000000     0.923050000000    -0.0423292  
C183     C      0.216980000000     0.932240000000     0.865800000000    -0.00687797 
C184     C      0.187050000000     0.892460000000     0.948330000000     0.113092   
C185     C      0.979160000000     0.733060000000     0.051650000000    -0.0152565  
C186     C      0.890630000000     0.706930000000     0.999080000000    -0.041284   
C187     C      0.008190000000     0.723320000000     0.013810000000    -0.0056342  
C188     C      0.918230000000     0.698050000000     0.959520000000     0.115629   
C189     C      0.991580000000     0.235320000000     0.909360000000    -0.0173242  
C190     C      0.970630000000     0.215020000000     0.994580000000    -0.0441917  
C191     C      0.051890000000     0.282630000000     0.923530000000    -0.00997862 
C192     C      0.033420000000     0.256180000000     0.007000000000     0.113903   
H1       H      0.001030000000     0.983960000000     0.865080000000     0.199648   
H2       H      0.895980000000     0.040490000000     0.981050000000     0.21147    
H3       H      0.906090000000     0.857340000000     0.030310000000     0.222255   
H4       H      0.106740000000     0.044030000000     0.040070000000     0.201331   
H5       H      0.840150000000     0.047400000000     0.896930000000     0.146247   
H6       H      0.793390000000     0.984010000000     0.972380000000     0.212271   
H7       H      0.806780000000     0.868500000000     0.095060000000     0.147311   
H8       H      0.946660000000     0.858970000000     0.135550000000     0.212838   
H9       H      0.105390000000     0.905780000000     0.087830000000     0.15615    
H10      H      0.181170000000     0.035750000000     0.010620000000     0.223636   
H11      H      0.134790000000     0.084440000000     0.855210000000     0.139054   
H12      H      0.020610000000     0.109980000000     0.833070000000     0.201562   
H13      H      0.014120000000     0.868400000000     0.147550000000     0.219264   
H14      H      0.212340000000     0.082880000000     0.966820000000     0.221456   
H15      H      0.955670000000     0.084920000000     0.803850000000     0.213212   
H16      H      0.755610000000     0.918050000000     0.963530000000     0.216009   
H17      H      0.852750000000     0.924170000000     0.444430000000     0.193834   
H18      H      0.064640000000     0.094800000000     0.400850000000     0.194225   
H19      H      0.007570000000     0.049110000000     0.582700000000     0.193727   
H20      H      0.042850000000     0.904380000000     0.504410000000     0.196648   
H21      H      0.991940000000     0.125920000000     0.353310000000     0.134618   
H22      H      0.022220000000     0.187240000000     0.444630000000     0.212652   
H23      H      0.126860000000     0.149500000000     0.575650000000     0.140794   
H24      H      0.113290000000     0.058130000000     0.633940000000     0.195572   
H25      H      0.000860000000     0.866750000000     0.616800000000     0.148828   
H26      H      0.957400000000     0.811440000000     0.542530000000     0.204951   
H27      H      0.839410000000     0.839930000000     0.398830000000     0.132363   
H28      H      0.865200000000     0.928900000000     0.335280000000     0.197588   
H29      H      0.105110000000     0.999480000000     0.661870000000     0.204325   
H30      H      0.917070000000     0.772790000000     0.499270000000     0.210276   
H31      H      0.882690000000     0.987520000000     0.302670000000     0.218548   
H32      H      0.079810000000     0.195240000000     0.418760000000     0.19444    
H33      H      0.911570000000     0.417680000000     0.073290000000     0.21797    
H34      H      0.892690000000     0.436490000000     0.883090000000     0.208745   
H35      H      0.046250000000     0.616780000000     0.972270000000     0.200254   
H36      H      0.092490000000     0.451690000000     0.982750000000     0.198433   
H37      H      0.763940000000     0.380380000000     0.921420000000     0.156701   
H38      H      0.839450000000     0.501350000000     0.864890000000     0.224057   
H39      H      0.056080000000     0.631670000000     0.857670000000     0.137647   
H40      H      0.146740000000     0.663420000000     0.919550000000     0.192282   
H41      H      0.165590000000     0.529200000000     0.053240000000     0.153161   
H42      H      0.124640000000     0.420430000000     0.075290000000     0.206089   
H43      H      0.922900000000     0.304010000000     0.064420000000     0.141502   
H44      H      0.805500000000     0.303800000000     0.041150000000     0.20036    
H45      H      0.205640000000     0.661300000000     0.944910000000     0.212705   
H46      H      0.104360000000     0.433690000000     0.122840000000     0.215132   
H47      H      0.754820000000     0.306590000000     0.002520000000     0.204489   
H48      H      0.869250000000     0.569000000000     0.856790000000     0.238526   
H49      H      0.923510000000     0.476280000000     0.582940000000     0.202069   
H50      H      0.889290000000     0.424870000000     0.402630000000     0.201017   
H51      H      0.068140000000     0.621240000000     0.443810000000     0.192835   
H52      H      0.080280000000     0.437970000000     0.514050000000     0.195376   
H53      H      0.779060000000     0.405730000000     0.423290000000     0.140932   
H54      H      0.880290000000     0.564180000000     0.351120000000     0.211107   
H55      H      0.060130000000     0.632580000000     0.347930000000     0.139286   
H56      H      0.148020000000     0.641410000000     0.401520000000     0.195764   
H57      H      0.194870000000     0.540230000000     0.537800000000     0.13598    
H58      H      0.123460000000     0.454340000000     0.603670000000     0.196257   
H59      H      0.900770000000     0.367570000000     0.615400000000     0.133499   
H60      H      0.798120000000     0.368140000000     0.574640000000     0.199078   
H61      H      0.183080000000     0.607750000000     0.394230000000     0.227617   
H62      H      0.085700000000     0.434540000000     0.651850000000     0.21723    
H63      H      0.751620000000     0.359650000000     0.528160000000     0.202905   
H64      H      0.861540000000     0.501980000000     0.337000000000     0.210449   
H65      H      0.481480000000     0.895530000000     0.909440000000     0.196279   
H66      H      0.431130000000     0.903830000000     0.086550000000     0.195606   
H67      H      0.625440000000     0.076220000000     0.010110000000     0.201258   
H68      H      0.412130000000     0.040930000000     0.936710000000     0.206605   
H69      H      0.452620000000     0.821530000000     0.094540000000     0.139606   
H70      H      0.561270000000     0.905320000000     0.127830000000     0.212143   
H71      H      0.615090000000     0.096240000000     0.114050000000     0.131751   
H72      H      0.603800000000     0.163990000000     0.042380000000     0.192534   
H73      H      0.499760000000     0.122910000000     0.876050000000     0.135851   
H74      H      0.402270000000     0.041700000000     0.831910000000     0.199343   
H75      H      0.351270000000     0.855780000000     0.872450000000     0.143087   
H76      H      0.405770000000     0.793900000000     0.924570000000     0.198399   
H77      H      0.623340000000     0.202550000000     0.991720000000     0.205266   
H78      H      0.387750000000     0.990260000000     0.800440000000     0.203793   
H79      H      0.349470000000     0.767400000000     0.958770000000     0.207124   
H80      H      0.517090000000     0.914240000000     0.158700000000     0.199295   
H81      H      0.389610000000     0.958610000000     0.404650000000     0.220582   
H82      H      0.452150000000     0.968540000000     0.593730000000     0.196004   
H83      H      0.578110000000     0.930860000000     0.481650000000     0.198231   
H84      H      0.592370000000     0.127360000000     0.457680000000     0.212919   
H85      H      0.327680000000     0.879940000000     0.587560000000     0.137478   
H86      H      0.422700000000     0.830480000000     0.604170000000     0.22477    
H87      H      0.634880000000     0.941290000000     0.568950000000     0.131242   
H88      H      0.728090000000     0.041200000000     0.494240000000     0.205842   
H89      H      0.667370000000     0.103380000000     0.376890000000     0.151935   
H90      H      0.566580000000     0.149240000000     0.345630000000     0.216337   
H91      H      0.394950000000     0.091750000000     0.409060000000     0.158325   
H92      H      0.271940000000     0.934750000000     0.465160000000     0.224156   
H93      H      0.743540000000     0.086030000000     0.447230000000     0.214407   
H94      H      0.499960000000     0.132890000000     0.322060000000     0.222482   
H95      H      0.260680000000     0.908950000000     0.520850000000     0.204065   
H96      H      0.468260000000     0.864170000000     0.648000000000     0.21535    
H97      H      0.378290000000     0.447720000000     0.051450000000     0.203187   
H98      H      0.416290000000     0.447580000000     0.868030000000     0.201718   
H99      H      0.570780000000     0.613630000000     0.962030000000     0.198572   
H100     H      0.552930000000     0.415070000000     0.019140000000     0.20034    
H101     H      0.310920000000     0.452700000000     0.862440000000     0.145633   
H102     H      0.425330000000     0.589310000000     0.828610000000     0.215317   
H103     H      0.616450000000     0.633210000000     0.878840000000     0.128992   
H104     H      0.701560000000     0.609970000000     0.945840000000     0.20571    
H105     H      0.664400000000     0.531860000000     0.083860000000     0.147515   
H106     H      0.545120000000     0.381380000000     0.109980000000     0.208863   
H107     H      0.345980000000     0.335480000000     0.084850000000     0.130575   
H108     H      0.255860000000     0.351270000000     0.000220000000     0.195796   
H109     H      0.726480000000     0.607130000000     0.001280000000     0.207047   
H110     H      0.545810000000     0.428520000000     0.140060000000     0.215022   
H111     H      0.231750000000     0.363220000000     0.946460000000     0.200314   
H112     H      0.412390000000     0.529870000000     0.811550000000     0.201025   
H113     H      0.399610000000     0.432260000000     0.573530000000     0.214077   
H114     H      0.400570000000     0.443630000000     0.381530000000     0.19858    
H115     H      0.540790000000     0.628400000000     0.469940000000     0.193876   
H116     H      0.591840000000     0.461240000000     0.499140000000     0.217306   
H117     H      0.292710000000     0.370860000000     0.395730000000     0.134194   
H118     H      0.350250000000     0.506490000000     0.348510000000     0.210557   
H119     H      0.565470000000     0.652150000000     0.375660000000     0.128545   
H120     H      0.669050000000     0.673750000000     0.429190000000     0.19552    
H121     H      0.700600000000     0.595160000000     0.548360000000     0.150325   
H122     H      0.599950000000     0.417860000000     0.610680000000     0.221879   
H123     H      0.415170000000     0.326650000000     0.594490000000     0.151083   
H124     H      0.269270000000     0.322630000000     0.530420000000     0.215288   
H125     H      0.717270000000     0.665750000000     0.467240000000     0.204324   
H126     H      0.617380000000     0.482980000000     0.612410000000     0.221213   
H127     H      0.244420000000     0.319780000000     0.474470000000     0.202366   
H128     H      0.373900000000     0.573430000000     0.345470000000     0.221028   
H129     H      0.518730000000     0.420560000000     0.724330000000     0.0699473  
H130     H      0.574220000000     0.523130000000     0.717400000000     0.0444772  
H131     H      0.509920000000     0.564870000000     0.694880000000     0.0469904  
H132     H      0.476500000000     0.384960000000     0.774190000000     0.0717006  
H133     H      0.412090000000     0.425670000000     0.750680000000     0.0288026  
H134     H      0.574850000000     0.559860000000     0.763390000000     0.0534647  
H135     H      0.467890000000     0.529190000000     0.744800000000     0.0415909  
H136     H      0.380230000000     0.439570000000     0.232370000000     0.057226   
H137     H      0.417910000000     0.541200000000     0.220590000000     0.0476004  
H138     H      0.517460000000     0.585690000000     0.256720000000     0.0500774  
H139     H      0.394490000000     0.406550000000     0.191100000000     0.0712126  
H140     H      0.501330000000     0.454770000000     0.218580000000     0.0316364  
H141     H      0.467760000000     0.580440000000     0.175840000000     0.0502574  
H142     H      0.542370000000     0.560390000000     0.216100000000     0.0429492  
H143     H      0.387510000000     0.713510000000     0.507270000000     0.0558792  
H144     H      0.413530000000     0.737580000000     0.423680000000     0.0553943  
H145     H      0.522200000000     0.793110000000     0.419550000000     0.0472037  
H146     H      0.392050000000     0.657950000000     0.539810000000     0.0702827  
H147     H      0.502260000000     0.711320000000     0.534870000000     0.0360938  
H148     H      0.441460000000     0.702110000000     0.397070000000     0.0504444  
H149     H      0.530760000000     0.739360000000     0.451610000000     0.0313463  
H150     H      0.449610000000     0.212730000000     0.454130000000     0.0567999  
H151     H      0.488230000000     0.218580000000     0.542970000000     0.0516457  
H152     H      0.593560000000     0.243960000000     0.544280000000     0.0471342  
H153     H      0.463320000000     0.274310000000     0.419890000000     0.0774432  
H154     H      0.571150000000     0.305760000000     0.430330000000     0.0342711  
H155     H      0.533160000000     0.285040000000     0.563270000000     0.0487749  
H156     H      0.609030000000     0.305140000000     0.509100000000     0.036858   
H157     H      0.660050000000     0.044840000000     0.773000000000     0.0698035  
H158     H      0.612690000000     0.104310000000     0.760160000000     0.0450283  
H159     H      0.544420000000     0.084080000000     0.694540000000     0.0460008  
H160     H      0.619070000000     0.975840000000     0.797330000000     0.066653   
H161     H      0.556300000000     0.946860000000     0.728770000000     0.028404   
H162     H      0.542100000000     0.079360000000     0.780870000000     0.0428664  
H163     H      0.495990000000     0.017400000000     0.720260000000     0.0358337  
H164     H      0.348410000000     0.968460000000     0.215270000000     0.0733156  
H165     H      0.441800000000     0.062190000000     0.219190000000     0.046972   
H166     H      0.522290000000     0.057490000000     0.267010000000     0.0458919  
H167     H      0.348580000000     0.919340000000     0.181710000000     0.0645225  
H168     H      0.420480000000     0.908380000000     0.236380000000     0.0254824  
H169     H      0.499670000000     0.076760000000     0.183420000000     0.0449847  
H170     H      0.519290000000     0.008190000000     0.232120000000     0.0464335  
H171     H      0.467710000000     0.751070000000     0.970020000000     0.0631156  
H172     H      0.503400000000     0.766520000000     0.881710000000     0.0399344  
H173     H      0.599140000000     0.843280000000     0.891160000000     0.0464675  
H174     H      0.475080000000     0.702160000000     0.009540000000     0.0767086  
H175     H      0.585490000000     0.757820000000     0.003330000000     0.0334934  
H176     H      0.550840000000     0.739920000000     0.875000000000     0.0482181  
H177     H      0.627400000000     0.803000000000     0.924210000000     0.0380859  
H178     H      0.337100000000     0.180260000000     0.983740000000     0.0567076  
H179     H      0.358630000000     0.189740000000     0.069940000000     0.0454615  
H180     H      0.404310000000     0.134580000000     0.091170000000     0.0446656  
H181     H      0.385670000000     0.231820000000     0.942550000000     0.0760275  
H182     H      0.455380000000     0.198240000000     0.962530000000     0.0412968  
H183     H      0.431270000000     0.236550000000     0.089880000000     0.0466799  
H184     H      0.471750000000     0.185820000000     0.067610000000     0.0416737  
H185     H      0.811880000000     0.222260000000     0.525630000000     0.0546578  
H186     H      0.749310000000     0.272220000000     0.525820000000     0.0484653  
H187     H      0.724520000000     0.294970000000     0.441180000000     0.0364737  
H188     H      0.775420000000     0.152970000000     0.512060000000     0.0575209  
H189     H      0.747640000000     0.181250000000     0.431620000000     0.0286613  
H190     H      0.673590000000     0.234540000000     0.510690000000     0.0455495  
H191     H      0.692630000000     0.225480000000     0.430460000000     0.0408332  
H192     H      0.155690000000     0.719660000000     0.438450000000     0.04459    
H193     H      0.230730000000     0.673460000000     0.464480000000     0.0435408  
H194     H      0.325990000000     0.744210000000     0.474070000000     0.0478775  
H195     H      0.144980000000     0.746400000000     0.487750000000     0.0539445  
H196     H      0.236040000000     0.817860000000     0.492990000000     0.0246412  
H197     H      0.249040000000     0.672620000000     0.526340000000     0.0538753  
H198     H      0.311110000000     0.766670000000     0.524040000000     0.0464536  
H199     H      0.670630000000     0.432830000000     0.445690000000     0.0609285  
H200     H      0.740960000000     0.589570000000     0.470690000000     0.0422698  
H201     H      0.840480000000     0.613920000000     0.470230000000     0.0447296  
H202     H      0.734840000000     0.470670000000     0.414100000000     0.0603161  
H203     H      0.757220000000     0.442020000000     0.492780000000     0.00813258 
H204     H      0.757350000000     0.602040000000     0.410200000000     0.0410135  
H205     H      0.827670000000     0.570570000000     0.424860000000     0.0413687  
H206     H      0.251180000000     0.534700000000     0.472470000000     0.0777143  
H207     H      0.181410000000     0.432340000000     0.529100000000     0.0307622  
H208     H      0.129640000000     0.360040000000     0.474910000000     0.0435281  
H209     H      0.311860000000     0.535360000000     0.451030000000     0.0665543  
H210     H      0.252400000000     0.459440000000     0.404980000000     0.0337368  
H211     H      0.213170000000     0.388910000000     0.536100000000     0.049647   
H212     H      0.196130000000     0.374400000000     0.451840000000     0.042618   
H213     H      0.027350000000     0.606980000000     0.731740000000     0.0658946  
H214     H      0.089760000000     0.562370000000     0.746180000000     0.048575   
H215     H      0.034090000000     0.462210000000     0.766050000000     0.0502094  
H216     H      0.982980000000     0.598290000000     0.678420000000     0.0674046  
H217     H      0.925460000000     0.499200000000     0.700780000000     0.0309294  
H218     H      0.093860000000     0.525830000000     0.701990000000     0.0469249  
H219     H      0.989090000000     0.453670000000     0.713430000000     0.0532401  
H220     H      0.865740000000     0.394930000000     0.240160000000     0.0651695  
H221     H      0.927420000000     0.349560000000     0.253410000000     0.0503044  
H222     H      0.008670000000     0.397520000000     0.204600000000     0.0518787  
H223     H      0.882430000000     0.451500000000     0.271650000000     0.0585141  
H224     H      0.968140000000     0.511300000000     0.225810000000     0.0423207  
H225     H      0.992160000000     0.378450000000     0.291130000000     0.0515414  
H226     H      0.040860000000     0.456780000000     0.236630000000     0.0513841  
H227     H      0.717760000000     0.199240000000     0.825760000000     0.063688   
H228     H      0.770130000000     0.131330000000     0.889670000000     0.0534318  
H229     H      0.823290000000     0.216840000000     0.844610000000     0.0480755  
H230     H      0.664830000000     0.200600000000     0.858130000000     0.0658677  
H231     H      0.737350000000     0.266640000000     0.907540000000     0.027816   
H232     H      0.780100000000     0.163550000000     0.942330000000     0.0539463  
H233     H      0.862970000000     0.226760000000     0.900370000000     0.0428232  
H234     H      0.251690000000     0.714670000000     0.041280000000     0.0667201  
H235     H      0.206600000000     0.825390000000     0.055040000000     0.0551289  
H236     H      0.136840000000     0.739800000000     0.030520000000     0.0316709  
H237     H      0.298090000000     0.737620000000     0.093620000000     0.0681599  
H238     H      0.213830000000     0.711220000000     0.139540000000     0.0356006  
H239     H      0.214120000000     0.799500000000     0.113910000000     0.0512758  
H240     H      0.115880000000     0.738640000000     0.088300000000     0.0408282  
H241     H      0.644290000000     0.411430000000     0.037010000000     0.0572438  
H242     H      0.713740000000     0.520980000000     0.011200000000     0.0349436  
H243     H      0.810820000000     0.545800000000     0.001530000000     0.0592101  
H244     H      0.632930000000     0.368220000000     0.992180000000     0.0575129  
H245     H      0.727880000000     0.384250000000     0.997680000000     0.0192184  
H246     H      0.727460000000     0.536210000000     0.949290000000     0.0498255  
H247     H      0.791620000000     0.500170000000     0.956720000000     0.059789   
H248     H      0.259400000000     0.583580000000     0.966150000000     0.0701672  
H249     H      0.187850000000     0.476910000000     0.993180000000     0.0280592  
H250     H      0.155330000000     0.417010000000     0.926010000000     0.041854   
H251     H      0.328350000000     0.598670000000     0.947690000000     0.0657767  
H252     H      0.284080000000     0.542420000000     0.882180000000     0.0416235  
H253     H      0.217010000000     0.432460000000     0.999370000000     0.039503   
H254     H      0.228510000000     0.445580000000     0.911320000000     0.0412764  
H255     H      0.703780000000     0.734050000000     0.629080000000     0.0649055  
H256     H      0.607610000000     0.764030000000     0.570570000000     0.0550936  
H257     H      0.706850000000     0.823240000000     0.598500000000     0.0538259  
H258     H      0.694940000000     0.675780000000     0.604330000000     0.0586855  
H259     H      0.742550000000     0.733220000000     0.531790000000     0.031376   
H260     H      0.630100000000     0.760250000000     0.515270000000     0.0342522  
H261     H      0.701120000000     0.848070000000     0.538970000000     0.0403488  
H262     H      0.345550000000     0.191630000000     0.476210000000     0.0662925  
H263     H      0.346370000000     0.204130000000     0.387380000000     0.0576193  
H264     H      0.245070000000     0.163860000000     0.368360000000     0.0541332  
H265     H      0.362470000000     0.248350000000     0.507370000000     0.0659418  
H266     H      0.263930000000     0.239680000000     0.480810000000     0.0298958  
H267     H      0.339610000000     0.260620000000     0.358300000000     0.0516518  
H268     H      0.241830000000     0.223570000000     0.377720000000     0.0297187  
H269     H      0.692710000000     0.935590000000     0.325300000000     0.0599024  
H270     H      0.665540000000     0.867290000000     0.393930000000     0.0390457  
H271     H      0.720510000000     0.904380000000     0.465290000000     0.0357717  
H272     H      0.666770000000     0.983840000000     0.318250000000     0.0547103  
H273     H      0.729810000000     0.032290000000     0.383900000000     0.0345633  
H274     H      0.617080000000     0.864700000000     0.434140000000     0.0324429  
H275     H      0.692010000000     0.949970000000     0.466040000000     0.0334824  
H276     H      0.332990000000     0.123940000000     0.540630000000     0.0725782  
H277     H      0.308170000000     0.073700000000     0.622630000000     0.0495126  
H278     H      0.218360000000     0.992880000000     0.612140000000     0.0444007  
H279     H      0.376410000000     0.110910000000     0.506490000000     0.0555304  
H280     H      0.293500000000     0.015390000000     0.498860000000     0.0313679  
H281     H      0.323960000000     0.019000000000     0.637690000000     0.0310716  
H282     H      0.249260000000     0.962290000000     0.582530000000     0.0358348  
H283     H      0.017830000000     0.744810000000     0.349970000000     0.0711155  
H284     H      0.092930000000     0.772330000000     0.424210000000     0.0577347  
H285     H      0.090330000000     0.842920000000     0.456540000000     0.0452003  
H286     H      0.943560000000     0.696550000000     0.362310000000     0.0577373  
H287     H      0.930700000000     0.760920000000     0.400010000000     0.0272285  
H288     H      0.062790000000     0.745790000000     0.480730000000     0.0491672  
H289     H      0.019760000000     0.799050000000     0.478560000000     0.030297   
H290     H      0.977910000000     0.199050000000     0.637300000000     0.064409   
H291     H      0.882610000000     0.171870000000     0.588120000000     0.0475375  
H292     H      0.895210000000     0.231590000000     0.515910000000     0.0569629  
H293     H      0.032230000000     0.188610000000     0.616390000000     0.0623532  
H294     H      0.051290000000     0.258430000000     0.551990000000     0.0299827  
H295     H      0.869540000000     0.135260000000     0.537650000000     0.0470025  
H296     H      0.947930000000     0.217050000000     0.496490000000     0.0573368  
H297     H      0.917920000000     0.004820000000     0.719610000000     0.0560896  
H298     H      0.981430000000     0.945170000000     0.738670000000     0.0369523  
H299     H      0.920150000000     0.859090000000     0.784310000000     0.0472569  
H300     H      0.858370000000     0.975060000000     0.677030000000     0.0692687  
H301     H      0.809190000000     0.892710000000     0.726830000000     0.0374562  
H302     H      0.953570000000     0.888270000000     0.703540000000     0.0441199  
H303     H      0.861460000000     0.841430000000     0.741050000000     0.0515281  
H304     H      0.152140000000     0.070450000000     0.258920000000     0.0678761  
H305     H      0.100300000000     0.126900000000     0.243560000000     0.0421128  
H306     H      0.035970000000     0.101840000000     0.175730000000     0.0523783  
H307     H      0.114240000000     0.002710000000     0.286630000000     0.0745241  
H308     H      0.049230000000     0.967660000000     0.220140000000     0.0387604  
H309     H      0.028180000000     0.098790000000     0.262010000000     0.0427816  
H310     H      0.987260000000     0.036140000000     0.202810000000     0.0461407  
H311     H      0.725750000000     0.765800000000     0.072560000000     0.0746903  
H312     H      0.678780000000     0.776720000000     0.991300000000     0.0492255  
H313     H      0.718810000000     0.756100000000     0.927800000000     0.0366383  
H314     H      0.704170000000     0.698350000000     0.098680000000     0.0579062  
H315     H      0.748170000000     0.680140000000     0.037300000000     0.0280684  
H316     H      0.623650000000     0.716040000000     0.965880000000     0.0313674  
H317     H      0.696550000000     0.688900000000     0.954220000000     0.0346265  
H318     H      0.186810000000     0.183080000000     0.882260000000     0.0668893  
H319     H      0.220870000000     0.195440000000     0.012200000000     0.0369469  
H320     H      0.275090000000     0.201720000000     0.944500000000     0.044709   
H321     H      0.139490000000     0.212340000000     0.880270000000     0.0555971  
H322     H      0.219490000000     0.300300000000     0.896150000000     0.0230035  
H323     H      0.225860000000     0.260400000000     0.992990000000     0.0377388  
H324     H      0.316540000000     0.257560000000     0.981520000000     0.0414507  
H325     H      0.765940000000     0.105400000000     0.065410000000     0.0543133  
H326     H      0.741350000000     0.956800000000     0.044940000000     0.0560475  
H327     H      0.799670000000     0.950130000000     0.117050000000     0.0482308  
H328     H      0.771620000000     0.071710000000     0.121030000000     0.0536177  
H329     H      0.868650000000     0.118690000000     0.088050000000     0.0292612  
H330     H      0.700210000000     0.937770000000     0.096210000000     0.0455859  
H331     H      0.786950000000     0.995400000000     0.144070000000     0.0433632  
H332     H      0.092340000000     0.848790000000     0.949680000000     0.0601423  
H333     H      0.188420000000     0.989790000000     0.874900000000     0.0655509  
H334     H      0.254500000000     0.965650000000     0.847150000000     0.0444911  
H335     H      0.119490000000     0.835000000000     0.901910000000     0.0467943  
H336     H      0.192230000000     0.858400000000     0.967630000000     0.021453   
H337     H      0.152560000000     0.949820000000     0.825710000000     0.0394437  
H338     H      0.201440000000     0.894680000000     0.847740000000     0.0379271  
H339     H      0.867680000000     0.668220000000     0.021410000000     0.063703   
H340     H      0.956300000000     0.695040000000     0.074760000000     0.0578497  
H341     H      0.037620000000     0.708070000000     0.030620000000     0.0402455  
H342     H      0.857400000000     0.718940000000     0.984910000000     0.074433   
H343     H      0.938880000000     0.736020000000     0.936020000000     0.0392073  
H344     H      0.012260000000     0.764950000000     0.073830000000     0.04702    
H345     H      0.035550000000     0.762560000000     0.993760000000     0.0362958  
H346     H      0.942670000000     0.234590000000     0.990600000000     0.0619692  
H347     H      0.961160000000     0.251690000000     0.899350000000     0.0502986  
H348     H      0.066490000000     0.316610000000     0.895490000000     0.0464661  
H349     H      0.953280000000     0.182270000000     0.023430000000     0.0833872  
H350     H      0.061140000000     0.236850000000     0.006500000000     0.0376912  
H351     H      0.994880000000     0.217560000000     0.878300000000     0.0447165  
H352     H      0.084390000000     0.268140000000     0.926740000000     0.037405   
N1       N      0.459600000000     0.477580000000     0.693870000000    -0.175324   
N2       N      0.525200000000     0.472190000000     0.774630000000    -0.159307   
N3       N      0.489470000000     0.499220000000     0.266370000000    -0.174327   
N4       N      0.432290000000     0.493700000000     0.178150000000    -0.161482   
N5       N      0.500400000000     0.776940000000     0.492400000000    -0.1785     
N6       N      0.417970000000     0.674240000000     0.468580000000    -0.161576   
N7       N      0.557960000000     0.234180000000     0.472330000000    -0.177129   
N8       N      0.496050000000     0.282710000000     0.492510000000    -0.163122   
N9       N      0.571560000000     0.023570000000     0.695170000000    -0.171452   
N10      N      0.577180000000     0.024430000000     0.792550000000    -0.161601   
N11      N      0.446600000000     0.977560000000     0.273510000000    -0.17314    
N12      N      0.424110000000     0.998300000000     0.178410000000    -0.160449   
N13      N      0.577350000000     0.821750000000     0.963250000000    -0.177406   
N14      N      0.507100000000     0.714120000000     0.939540000000    -0.161478   
N15      N      0.407370000000     0.139170000000     0.017020000000    -0.172914   
N16      N      0.412890000000     0.240390000000     0.015750000000    -0.159946   
N17      N      0.784870000000     0.263930000000     0.443050000000    -0.172456   
N18      N      0.721610000000     0.190130000000     0.516750000000    -0.163406   
N19      N      0.282920000000     0.791240000000     0.458660000000    -0.171999   
N20      N      0.187320000000     0.699620000000     0.503720000000    -0.164298   
N21      N      0.802830000000     0.529040000000     0.491670000000    -0.172325   
N22      N      0.702400000000     0.519080000000     0.433030000000    -0.15708    
N23      N      0.171630000000     0.435210000000     0.432270000000    -0.17288    
N24      N      0.264500000000     0.468920000000     0.501450000000    -0.162842   
N25      N      0.976470000000     0.497100000000     0.761810000000    -0.173645   
N26      N      0.037340000000     0.560880000000     0.684440000000    -0.160729   
N27      N      0.968440000000     0.448860000000     0.191850000000    -0.169335   
N28      N      0.940140000000     0.417830000000     0.285510000000    -0.161419   
N29      N      0.812630000000     0.267630000000     0.885820000000    -0.169972   
N30      N      0.712850000000     0.162860000000     0.894780000000    -0.155319   
N31      N      0.151710000000     0.687140000000     0.082660000000    -0.17044    
N32      N      0.258750000000     0.785860000000     0.065030000000    -0.156509   
N33      N      0.773420000000     0.461560000000     0.025340000000    -0.170213   
N34      N      0.671460000000     0.453010000000     0.971340000000    -0.163396   
N35      N      0.196770000000     0.502050000000     0.901070000000    -0.170425   
N36      N      0.276930000000     0.517500000000     0.978950000000    -0.159485   
N37      N      0.751690000000     0.806980000000     0.551520000000    -0.167466   
N38      N      0.641860000000     0.710020000000     0.571920000000    -0.156198   
N39      N      0.239330000000     0.173830000000     0.439730000000    -0.164421   
N40      N      0.354470000000     0.260560000000     0.432610000000    -0.157632   
N41      N      0.753130000000     0.973090000000     0.414120000000    -0.172396   
N42      N      0.636670000000     0.925400000000     0.376730000000    -0.162648   
N43      N      0.236480000000     0.022540000000     0.539780000000    -0.165508   
N44      N      0.356100000000     0.065950000000     0.573240000000    -0.160274   
N45      N      0.018780000000     0.822950000000     0.406190000000    -0.169575   
N46      N      0.004380000000     0.715300000000     0.420900000000    -0.157413   
N47      N      0.976380000000     0.266590000000     0.553490000000    -0.168526   
N48      N      0.950640000000     0.156850000000     0.576380000000    -0.159589   
N49      N      0.876670000000     0.907360000000     0.778680000000    -0.170433   
N50      N      0.916090000000     0.941050000000     0.686860000000    -0.158728   
N51      N      0.064270000000     0.041980000000     0.181440000000    -0.169756   
N52      N      0.068880000000     0.048610000000     0.278930000000    -0.15994    
N53      N      0.766210000000     0.750440000000     0.991610000000    -0.173428   
N54      N      0.657980000000     0.703950000000     0.034690000000    -0.156094   
N55      N      0.284760000000     0.276940000000     0.914090000000    -0.172926   
N56      N      0.172520000000     0.198360000000     0.948450000000    -0.1622     
N57      N      0.842420000000     0.034310000000     0.087650000000    -0.175487   
N58      N      0.729010000000     0.018910000000     0.066570000000    -0.154614   
N59      N      0.233960000000     0.922880000000     0.915100000000    -0.16801    
N60      N      0.119220000000     0.910190000000     0.891860000000    -0.153392   
N61      N      0.963690000000     0.685290000000     0.981270000000    -0.179091   
N62      N      0.937330000000     0.748430000000     0.027470000000    -0.154453   
N63      N      0.049520000000     0.300250000000     0.969250000000    -0.177443   
N64      N      0.969760000000     0.194330000000     0.949570000000    -0.158453   
O1       O      0.094850000000     0.118050000000     0.931610000000    -0.342408   
O2       O      0.106660000000     0.141220000000     0.004360000000    -0.356647   
O3       O      0.898420000000     0.966940000000     0.834390000000    -0.349558   
O4       O      0.909050000000     0.891630000000     0.852720000000    -0.379232   
O5       O      0.954980000000     0.118340000000     0.915940000000    -0.360555   
O6       O      0.992810000000     0.134980000000     0.990810000000    -0.376084   
O7       O      0.085970000000     0.971040000000     0.885850000000    -0.378219   
O8       O      0.027600000000     0.886230000000     0.915260000000    -0.34335    
O9       O      0.156130000000     0.076380000000     0.882660000000    -0.333888   
O10      O      0.177860000000     0.053180000000     0.980300000000    -0.534264   
O11      O      0.979240000000     0.085480000000     0.832080000000    -0.529616   
O12      O      0.840790000000     0.020200000000     0.878920000000    -0.327751   
O13      O      0.024030000000     0.066850000000     0.943460000000    -0.46353    
O14      O      0.993800000000     0.983870000000     0.897190000000    -0.625091   
O15      O      0.986070000000     0.837250000000     0.044980000000    -0.366316   
O16      O      0.935130000000     0.813140000000     0.975040000000    -0.372815   
O17      O      0.887910000000     0.984860000000     0.081840000000    -0.369936   
O18      O      0.934670000000     0.072660000000     0.059830000000    -0.341048   
O19      O      0.811060000000     0.836930000000     0.009920000000    -0.376952   
O20      O      0.844430000000     0.815380000000     0.950730000000    -0.34346    
O21      O      0.045870000000     0.986460000000     0.123660000000    -0.355887   
O22      O      0.042120000000     0.065160000000     0.106070000000    -0.37408    
O23      O      0.986480000000     0.875210000000     0.127180000000    -0.521264   
O24      O      0.112730000000     0.941310000000     0.071510000000    -0.336394   
O25      O      0.788470000000     0.879670000000     0.067200000000    -0.333001   
O26      O      0.790250000000     0.948360000000     0.975730000000    -0.536017   
O27      O      0.925950000000     0.893000000000     0.014530000000    -0.644364   
O28      O      0.957240000000     0.973660000000     0.059450000000    -0.473062   
O29      O      0.035110000000     0.937480000000     0.976470000000    -0.481571   
O30      O      0.918110000000     0.022160000000     0.979700000000    -0.632526   
O31      O      0.070680000000     0.024040000000     0.022190000000    -0.628568   
O32      O      0.882450000000     0.935040000000     0.935040000000    -0.487611   
O33      O      0.966540000000     0.866490000000     0.407550000000    -0.352419   
O34      O      0.063300000000     0.913050000000     0.421310000000    -0.360379   
O35      O      0.847350000000     0.004250000000     0.400640000000    -0.352683   
O36      O      0.819740000000     0.981980000000     0.475500000000    -0.365919   
O37      O      0.006730000000     0.039140000000     0.332530000000    -0.378383   
O38      O      0.077580000000     0.016310000000     0.354460000000    -0.362021   
O39      O      0.835220000000     0.838600000000     0.512900000000    -0.346657   
O40      O      0.815340000000     0.899340000000     0.540090000000    -0.350713   
O41      O      0.846690000000     0.817430000000     0.425010000000    -0.335703   
O42      O      0.936110000000     0.807520000000     0.512550000000    -0.53243    
O43      O      0.885790000000     0.968190000000     0.332010000000    -0.516618   
O44      O      0.951230000000     0.103570000000     0.362300000000    -0.321788   
O45      O      0.976790000000     0.952970000000     0.412440000000    -0.481873   
O46      O      0.892880000000     0.945850000000     0.454740000000    -0.631586   
O47      O      0.976770000000     0.949790000000     0.632000000000    -0.372082   
O48      O      0.903200000000     0.969310000000     0.610390000000    -0.363389   
O49      O      0.152890000000     0.144140000000     0.471570000000    -0.356707   
O50      O      0.161410000000     0.091130000000     0.423350000000    -0.340816   
O51      O      0.011010000000     0.134460000000     0.547000000000    -0.379293   
O52      O      0.914460000000     0.073540000000     0.547060000000    -0.360933   
O53      O      0.143510000000     0.996580000000     0.559310000000    -0.351432   
O54      O      0.163340000000     0.008230000000     0.482880000000    -0.340572   
O55      O      0.097680000000     0.019250000000     0.634590000000    -0.52248    
O56      O      0.038710000000     0.887800000000     0.602190000000    -0.364377   
O57      O      0.123750000000     0.171440000000     0.547010000000    -0.318444   
O58      O      0.051380000000     0.176720000000     0.442210000000    -0.532286   
O59      O      0.003950000000     0.034020000000     0.553530000000    -0.624105   
O60      O      0.089390000000     0.042320000000     0.510020000000    -0.487696   
O61      O      0.940920000000     0.924400000000     0.541830000000    -0.486097   
O62      O      0.042500000000     0.066170000000     0.424090000000    -0.635266   
O63      O      0.026950000000     0.928950000000     0.498740000000    -0.623613   
O64      O      0.954640000000     0.059410000000     0.466960000000    -0.48783    
O65      O      0.029540000000     0.352970000000     0.010350000000    -0.357981   
O66      O      0.026310000000     0.362520000000     0.931050000000    -0.376605   
O67      O      0.829340000000     0.421610000000     0.044240000000    -0.370355   
O68      O      0.872070000000     0.511140000000     0.043700000000    -0.337494   
O69      O      0.834470000000     0.334530000000     0.930850000000    -0.390956   
O70      O      0.908770000000     0.337970000000     0.895670000000    -0.347929   
O71      O      0.995910000000     0.431180000000     0.126570000000    -0.371138   
O72      O      0.973540000000     0.499590000000     0.122550000000    -0.358058   
O73      O      0.951490000000     0.325920000000     0.088720000000    -0.328691   
O74      O      0.096750000000     0.424830000000     0.090630000000    -0.529688   
O75      O      0.794710000000     0.322250000000     0.014720000000    -0.515176   
O76      O      0.792470000000     0.417540000000     0.929800000000    -0.359979   
O77      O      0.941940000000     0.383010000000     0.982790000000    -0.501738   
O78      O      0.932650000000     0.435720000000     0.045520000000    -0.637032   
O79      O      0.136130000000     0.625370000000     0.032460000000    -0.362938   
O80      O      0.059260000000     0.617060000000     0.067990000000    -0.348616   
O81      O      0.965950000000     0.525610000000     0.828920000000    -0.358215   
O82      O      0.987250000000     0.456750000000     0.832770000000    -0.38036    
O83      O      0.953220000000     0.617710000000     0.940130000000    -0.355366   
O84      O      0.968180000000     0.613480000000     0.019620000000    -0.374126   
O85      O      0.151280000000     0.547350000000     0.916470000000    -0.361157   
O86      O      0.097190000000     0.459850000000     0.898930000000    -0.355592   
O87      O      0.163950000000     0.644490000000     0.939600000000    -0.516944   
O88      O      0.183130000000     0.552580000000     0.024640000000    -0.344881   
O89      O      0.019210000000     0.631450000000     0.861190000000    -0.331414   
O90      O      0.871780000000     0.537020000000     0.869680000000    -0.523771   
O91      O      0.027970000000     0.577680000000     0.973020000000    -0.643809   
O92      O      0.038410000000     0.525500000000     0.910280000000    -0.491824   
O93      O      0.051410000000     0.511340000000     0.045810000000    -0.497307   
O94      O      0.918400000000     0.450140000000     0.910410000000    -0.636838   
O95      O      0.061600000000     0.460520000000     0.981490000000    -0.635661   
O96      O      0.908040000000     0.502730000000     0.974370000000    -0.487216   
O97      O      0.998770000000     0.352470000000     0.569560000000    -0.345657   
O98      O      0.976610000000     0.328450000000     0.494610000000    -0.357374   
O99      O      0.846350000000     0.486830000000     0.538050000000    -0.379536   
O100     O      0.901140000000     0.572690000000     0.513620000000    -0.343543   
O101     O      0.823830000000     0.346380000000     0.469570000000    -0.402708   
O102     O      0.884160000000     0.324830000000     0.438830000000    -0.336612   
O103     O      0.032460000000     0.507360000000     0.630280000000    -0.370904   
O104     O      0.007110000000     0.573450000000     0.608480000000    -0.378076   
O105     O      0.938860000000     0.386790000000     0.632680000000    -0.343904   
O106     O      0.088120000000     0.444180000000     0.618490000000    -0.518456   
O107     O      0.790920000000     0.376040000000     0.541750000000    -0.520815   
O108     O      0.810320000000     0.443400000000     0.427370000000    -0.36236    
O109     O      0.932940000000     0.396930000000     0.514540000000    -0.503263   
O110     O      0.941640000000     0.479350000000     0.554610000000    -0.627522   
O111     O      0.142310000000     0.610750000000     0.532580000000    -0.356257   
O112     O      0.091630000000     0.654440000000     0.523660000000    -0.35514    
O113     O      0.952860000000     0.477560000000     0.336630000000    -0.371989   
O114     O      0.970250000000     0.406830000000     0.361380000000    -0.366374   
O115     O      0.980070000000     0.629260000000     0.402260000000    -0.368185   
O116     O      0.001080000000     0.651490000000     0.477980000000    -0.361211   
O117     O      0.145120000000     0.496250000000     0.443910000000    -0.382609   
O118     O      0.074550000000     0.409150000000     0.435570000000    -0.362434   
O119     O      0.155420000000     0.611310000000     0.410670000000    -0.536735   
O120     O      0.202440000000     0.568870000000     0.511770000000    -0.337351   
O121     O      0.038520000000     0.596100000000     0.335960000000    -0.333399   
O122     O      0.888200000000     0.534150000000     0.352630000000    -0.522878   
O123     O      0.045340000000     0.583600000000     0.455040000000    -0.631674   
O124     O      0.036010000000     0.499990000000     0.415570000000    -0.48213    
O125     O      0.059380000000     0.534700000000     0.542730000000    -0.476192   
O126     O      0.918520000000     0.445370000000     0.425990000000    -0.622316   
O127     O      0.054910000000     0.453390000000     0.505080000000    -0.63492    
O128     O      0.924290000000     0.527030000000     0.464160000000    -0.489979   
O129     O      0.327370000000     0.946800000000     0.898640000000    -0.364481   
O130     O      0.305430000000     0.942930000000     0.973570000000    -0.343487   
O131     O      0.514730000000     0.844930000000     0.986620000000    -0.370701   
O132     O      0.587990000000     0.906980000000     0.942390000000    -0.370561   
O133     O      0.347390000000     0.819900000000     0.035400000000    -0.37444    
O134     O      0.315570000000     0.878510000000     0.046800000000    -0.34554    
O135     O      0.504810000000     0.002880000000     0.840310000000    -0.357974   
O136     O      0.581030000000     0.989270000000     0.867450000000    -0.365032   
O137     O      0.385820000000     0.881920000000     0.855000000000    -0.361122   
O138     O      0.400590000000     0.007220000000     0.829640000000    -0.521257   
O139     O      0.388430000000     0.795280000000     0.951790000000    -0.529545   
O140     O      0.439200000000     0.801190000000     0.066190000000    -0.319144   
O141     O      0.389040000000     0.909870000000     0.966560000000    -0.504616   
O142     O      0.481280000000     0.918600000000     0.931290000000    -0.622344   
O143     O      0.622900000000     0.132090000000     0.922580000000    -0.364025   
O144     O      0.661270000000     0.075200000000     0.927950000000    -0.358163   
O145     O      0.490670000000     0.012070000000     0.127740000000    -0.371371   
O146     O      0.394740000000     0.969170000000     0.105260000000    -0.36855    
O147     O      0.646550000000     0.021550000000     0.073760000000    -0.37405    
O148     O      0.658400000000     0.992460000000     0.007730000000    -0.353936   
O149     O      0.472610000000     0.119750000000     0.994820000000    -0.376214   
O150     O      0.390260000000     0.051590000000     0.027150000000    -0.356584   
O151     O      0.600190000000     0.167770000000     0.008570000000    -0.528804   
O152     O      0.519210000000     0.147440000000     0.901500000000    -0.331398   
O153     O      0.605720000000     0.060340000000     0.130660000000    -0.324293   
O154     O      0.540120000000     0.924120000000     0.131800000000    -0.535556   
O155     O      0.585880000000     0.048330000000     0.004250000000    -0.638275   
O156     O      0.492670000000     0.039160000000     0.037400000000    -0.492398   
O157     O      0.525940000000     0.030100000000     0.914620000000    -0.493713   
O158     O      0.448190000000     0.925160000000     0.058030000000    -0.63512    
O159     O      0.434680000000     0.023600000000     0.949790000000    -0.62722    
O160     O      0.539180000000     0.933790000000     0.022830000000    -0.486941   
O161     O      0.518620000000     0.153350000000     0.438180000000    -0.357949   
O162     O      0.543650000000     0.156860000000     0.515910000000    -0.371901   
O163     O      0.330130000000     0.883110000000     0.448860000000    -0.369867   
O164     O      0.378710000000     0.840160000000     0.438870000000    -0.353799   
O165     O      0.363680000000     0.994850000000     0.556040000000    -0.390388   
O166     O      0.445140000000     0.076450000000     0.562310000000    -0.358497   
O167     O      0.470490000000     0.023420000000     0.338050000000    -0.367565   
O168     O      0.444570000000     0.933530000000     0.346340000000    -0.357617   
O169     O      0.393120000000     0.063980000000     0.390230000000    -0.345413   
O170     O      0.524900000000     0.128320000000     0.347230000000    -0.513636   
O171     O      0.286490000000     0.926200000000     0.495460000000    -0.518994   
O172     O      0.347350000000     0.869640000000     0.566740000000    -0.356704   
O173     O      0.445310000000     0.040080000000     0.487120000000    -0.497618   
O174     O      0.419780000000     0.968080000000     0.429450000000    -0.627473   
O175     O      0.632330000000     0.988530000000     0.412850000000    -0.393651   
O176     O      0.548770000000     0.914070000000     0.392000000000    -0.361332   
O177     O      0.554820000000     0.975380000000     0.631840000000    -0.356981   
O178     O      0.549660000000     0.053810000000     0.622970000000    -0.386114   
O179     O      0.508790000000     0.846510000000     0.530720000000    -0.352818   
O180     O      0.486350000000     0.843740000000     0.452470000000    -0.369051   
O181     O      0.673060000000     0.097720000000     0.524490000000    -0.363091   
O182     O      0.627950000000     0.142170000000     0.540260000000    -0.353465   
O183     O      0.715680000000     0.059420000000     0.468710000000    -0.52578    
O184     O      0.651440000000     0.115790000000     0.399240000000    -0.369858   
O185     O      0.604020000000     0.918620000000     0.591000000000    -0.31185    
O186     O      0.458090000000     0.861220000000     0.614850000000    -0.523897   
O187     O      0.556430000000     0.949800000000     0.482770000000    -0.636618   
O188     O      0.583840000000     0.023220000000     0.538700000000    -0.482531   
O189     O      0.536330000000     0.015050000000     0.407240000000    -0.494396   
O190     O      0.465770000000     0.974070000000     0.562740000000    -0.636271   
O191     O      0.565270000000     0.089420000000     0.464610000000    -0.639103   
O192     O      0.439230000000     0.899180000000     0.505160000000    -0.488123   
O193     O      0.438140000000     0.321220000000     0.044090000000    -0.369213   
O194     O      0.454280000000     0.318850000000     0.968620000000    -0.352748   
O195     O      0.316540000000     0.463570000000     0.000890000000    -0.397338   
O196     O      0.375880000000     0.552550000000     0.000470000000    -0.339332   
O197     O      0.329240000000     0.367590000000     0.898060000000    -0.39179    
O198     O      0.384740000000     0.329300000000     0.922220000000    -0.339377   
O199     O      0.443510000000     0.451400000000     0.121820000000    -0.38022    
O200     O      0.453630000000     0.536070000000     0.103960000000    -0.378836   
O201     O      0.381710000000     0.343830000000     0.104930000000    -0.327269   
O202     O      0.531180000000     0.406330000000     0.113830000000    -0.528529   
O203     O      0.263680000000     0.368110000000     0.968660000000    -0.524648   
O204     O      0.327820000000     0.479320000000     0.886440000000    -0.351303   
O205     O      0.411310000000     0.389000000000     0.983920000000    -0.497824   
O206     O      0.405750000000     0.457140000000     0.027990000000    -0.630631   
O207     O      0.636870000000     0.617600000000     0.031160000000    -0.381765   
O208     O      0.563460000000     0.636100000000     0.036990000000    -0.349008   
O209     O      0.522320000000     0.517120000000     0.832830000000    -0.372637   
O210     O      0.498430000000     0.427730000000     0.847530000000    -0.371998   
O211     O      0.507390000000     0.642560000000     0.907970000000    -0.36563    
O212     O      0.482210000000     0.635080000000     0.982330000000    -0.370876   
O213     O      0.621300000000     0.495900000000     0.937580000000    -0.357344   
O214     O      0.575940000000     0.407020000000     0.941700000000    -0.357332   
O215     O      0.694250000000     0.596800000000     0.978310000000    -0.528821   
O216     O      0.640410000000     0.499150000000     0.066530000000    -0.36145    
O217     O      0.583430000000     0.626930000000     0.855980000000    -0.333756   
O218     O      0.432530000000     0.558720000000     0.832260000000    -0.526586   
O219     O      0.544550000000     0.575450000000     0.968210000000    -0.637531   
O220     O      0.549740000000     0.505370000000     0.924700000000    -0.460091   
O221     O      0.525420000000     0.508430000000     0.052620000000    -0.49504    
O222     O      0.433570000000     0.458110000000     0.898880000000    -0.623193   
O223     O      0.532920000000     0.435120000000     0.006990000000    -0.62416    
O224     O      0.424780000000     0.530390000000     0.944710000000    -0.482828   
O225     O      0.501240000000     0.351160000000     0.530460000000    -0.362069   
O226     O      0.507670000000     0.359890000000     0.451430000000    -0.369546   
O227     O      0.319580000000     0.432130000000     0.533870000000    -0.381838   
O228     O      0.360710000000     0.521650000000     0.525790000000    -0.326498   
O229     O      0.368280000000     0.332450000000     0.468500000000    -0.360716   
O230     O      0.418390000000     0.348670000000     0.404950000000    -0.337786   
O231     O      0.477940000000     0.447610000000     0.631620000000    -0.363658   
O232     O      0.462080000000     0.520540000000     0.621310000000    -0.380407   
O233     O      0.454980000000     0.346500000000     0.608930000000    -0.316865   
O234     O      0.591650000000     0.447460000000     0.601560000000    -0.53134    
O235     O      0.274520000000     0.337790000000     0.498230000000    -0.521714   
O236     O      0.299800000000     0.404620000000     0.408420000000    -0.369064   
O237     O      0.444200000000     0.397530000000     0.489820000000    -0.484195   
O238     O      0.423150000000     0.448760000000     0.546800000000    -0.622341   
O239     O      0.628740000000     0.641950000000     0.531330000000    -0.386762   
O240     O      0.548770000000     0.637570000000     0.558010000000    -0.350586   
O241     O      0.480940000000     0.534320000000     0.329950000000    -0.373198   
O242     O      0.497740000000     0.462320000000     0.340120000000    -0.357594   
O243     O      0.438310000000     0.618670000000     0.432030000000    -0.370798   
O244     O      0.435190000000     0.611010000000     0.511310000000    -0.370965   
O245     O      0.640330000000     0.553730000000     0.420330000000    -0.366187   
O246     O      0.603850000000     0.464960000000     0.416480000000    -0.355656   
O247     O      0.677860000000     0.652460000000     0.454320000000    -0.518454   
O248     O      0.674680000000     0.558250000000     0.538100000000    -0.344461   
O249     O      0.525490000000     0.642370000000     0.363180000000    -0.341057   
O250     O      0.379230000000     0.542460000000     0.356580000000    -0.528465   
O251     O      0.525220000000     0.589450000000     0.472620000000    -0.634196   
O252     O      0.542830000000     0.535700000000     0.415790000000    -0.486807   
O253     O      0.543540000000     0.526450000000     0.551370000000    -0.500694   
O254     O      0.422500000000     0.458230000000     0.410120000000    -0.628512   
O255     O      0.561670000000     0.471340000000     0.494160000000    -0.627318   
O256     O      0.406130000000     0.510530000000     0.468620000000    -0.48596    
Zr1      Zr     0.083750000000     0.027700000000     0.940920000000     1.36691    
Zr2      Zr     0.934980000000     0.025640000000     0.900060000000     1.38601    
Zr3      Zr     0.016900000000     0.933310000000     0.055750000000     1.38917    
Zr4      Zr     0.867040000000     0.933390000000     0.014950000000     1.39408    
Zr5      Zr     0.009630000000     0.063940000000     0.024010000000     1.3744     
Zr6      Zr     0.942640000000     0.894120000000     0.934920000000     1.36279    
Zr7      Zr     0.926990000000     0.882920000000     0.472030000000     1.37377    
Zr8      Zr     0.944340000000     0.017880000000     0.397240000000     1.39331    
Zr9      Zr     0.040610000000     0.971690000000     0.567950000000     1.3715     
Zr10     Zr     0.053590000000     0.104650000000     0.495070000000     1.38625    
Zr11     Zr     0.076220000000     0.001250000000     0.439310000000     1.37128    
Zr12     Zr     0.904060000000     0.987190000000     0.525090000000     1.35128    
Zr13     Zr     0.008950000000     0.414970000000     0.048110000000     1.38987    
Zr14     Zr     0.867600000000     0.407060000000     0.979120000000     1.39963    
Zr15     Zr     0.102860000000     0.556140000000     0.977690000000     1.40104    
Zr16     Zr     0.961720000000     0.546400000000     0.907310000000     1.40449    
Zr17     Zr     0.995080000000     0.428550000000     0.914780000000     1.36771    
Zr18     Zr     0.974510000000     0.532750000000     0.040950000000     1.38468    
Zr19     Zr     0.005930000000     0.442690000000     0.572210000000     1.38561    
Zr20     Zr     0.871370000000     0.435600000000     0.493950000000     1.39737    
Zr21     Zr     0.107180000000     0.545620000000     0.474760000000     1.39564    
Zr22     Zr     0.972900000000     0.538420000000     0.396860000000     1.39156    
Zr23     Zr     0.981590000000     0.407010000000     0.446310000000     1.36624    
Zr24     Zr     0.995740000000     0.572630000000     0.523690000000     1.36758    
Zr25     Zr     0.428700000000     0.963680000000     0.896800000000     1.36801    
Zr26     Zr     0.442530000000     0.867700000000     0.002590000000     1.39066    
Zr27     Zr     0.533320000000     0.090400000000     0.966350000000     1.39       
Zr28     Zr     0.544210000000     0.995230000000     0.074240000000     1.378      
Zr29     Zr     0.395360000000     0.968800000000     0.021090000000     1.37355    
Zr30     Zr     0.579020000000     0.986510000000     0.951750000000     1.36656    
Zr31     Zr     0.483370000000     0.061740000000     0.412200000000     1.39491    
Zr32     Zr     0.386070000000     0.945460000000     0.507010000000     1.38591    
Zr33     Zr     0.616810000000     0.042570000000     0.461520000000     1.39169    
Zr34     Zr     0.521380000000     0.929940000000     0.558820000000     1.39704    
Zr35     Zr     0.527770000000     0.067790000000     0.540780000000     1.37039    
Zr36     Zr     0.474010000000     0.921070000000     0.428190000000     1.37855    
Zr37     Zr     0.459830000000     0.413220000000     0.058050000000     1.38915    
Zr38     Zr     0.361260000000     0.436160000000     0.951310000000     1.3965     
Zr39     Zr     0.597240000000     0.530490000000     0.999240000000     1.37455    
Zr40     Zr     0.499100000000     0.553410000000     0.894060000000     1.38836    
Zr41     Zr     0.483420000000     0.409100000000     0.931510000000     1.36143    
Zr42     Zr     0.470700000000     0.552580000000     0.020510000000     1.36985    
Zr43     Zr     0.501920000000     0.430170000000     0.558430000000     1.39539    
Zr44     Zr     0.366110000000     0.414730000000     0.476550000000     1.3837     
Zr45     Zr     0.601040000000     0.567200000000     0.485580000000     1.38451    
Zr46     Zr     0.464590000000     0.554900000000     0.404690000000     1.38636    
Zr47     Zr     0.501370000000     0.439070000000     0.423780000000     1.37527    
Zr48     Zr     0.465300000000     0.546230000000     0.537520000000     1.35927    


