data_structure

_audit_creation_method RASPA-1.0
_audit_creation_date 2023-6-4
_audit_author_name 'Poobodin Mano'

_cell_length_a    26.1777
_cell_length_b    29.1866
_cell_length_c    29.8853
_cell_angle_alpha 82.7453
_cell_angle_beta  96.3276
_cell_angle_gamma 119.437
_cell_volume      19695.8

_symmetry_cell_setting          triclinic
_symmetry_space_group_name_Hall 'P 1'
_symmetry_space_group_name_H-M  'P 1'
_symmetry_Int_Tables_number     1

_symmetry_equiv_pos_as_xyz 'x,y,z'

loop_
_atom_site_label
_atom_site_type_symbol
_atom_site_fract_x
_atom_site_fract_y
_atom_site_fract_z
_atom_site_charge
C1       C      0.165760000000     0.119790000000     0.992620000000     0.390015   
C2       C      0.928810000000     0.953610000000     0.805880000000     0.414923   
C3       C      0.026350000000     0.146880000000     0.961530000000     0.447338   
C4       C      0.080870000000     0.918420000000     0.880220000000     0.388643   
C5       C      0.938950000000     0.790490000000     0.969560000000     0.43547    
C6       C      0.897210000000     0.010870000000     0.064670000000     0.400215   
C7       C      0.803880000000     0.820940000000     0.934330000000     0.376582   
C8       C      0.028220000000     0.979310000000     0.124940000000     0.422842   
C9       C      0.023210000000     0.855910000000     0.408770000000     0.381801   
C10      C      0.788440000000     0.949470000000     0.421880000000     0.412781   
C11      C      0.020500000000     0.976270000000     0.309600000000     0.389458   
C12      C      0.801720000000     0.837050000000     0.520950000000     0.393396   
C13      C      0.941860000000     0.962840000000     0.620750000000     0.387922   
C14      C      0.164440000000     0.120000000000     0.401170000000     0.38526    
C15      C      0.945280000000     0.105560000000     0.510220000000     0.38551    
C16      C      0.185500000000     0.016200000000     0.506410000000     0.388998   
C17      C      0.038430000000     0.336800000000     0.964970000000     0.405246   
C18      C      0.830230000000     0.461210000000     0.026090000000     0.384399   
C19      C      0.860680000000     0.309750000000     0.899350000000     0.391289   
C20      C      0.008270000000     0.473250000000     0.127560000000     0.405603   
C21      C      0.114170000000     0.647630000000     0.018900000000     0.384442   
C22      C      0.982500000000     0.485300000000     0.804900000000     0.409375   
C23      C      0.935070000000     0.606270000000     0.968960000000     0.41166    
C24      C      0.144020000000     0.491970000000     0.893140000000     0.372006   
C25      C      0.966610000000     0.305310000000     0.494410000000     0.429692   
C26      C      0.828230000000     0.501370000000     0.496540000000     0.411892   
C27      C      0.845990000000     0.317370000000     0.414790000000     0.423957   
C28      C      0.985730000000     0.499110000000     0.620230000000     0.433751   
C29      C      0.119760000000     0.633620000000     0.527540000000     0.37467    
C30      C      0.999850000000     0.468320000000     0.311450000000     0.427738   
C31      C      0.991440000000     0.652630000000     0.436710000000     0.398724   
C32      C      0.137270000000     0.460440000000     0.424400000000     0.404151   
C33      C      0.299820000000     0.950860000000     0.925090000000     0.417816   
C34      C      0.528180000000     0.852300000000     0.914920000000     0.422987   
C35      C      0.298180000000     0.842660000000     0.009880000000     0.418322   
C36      C      0.545460000000     0.004460000000     0.816330000000     0.3864     
C37      C      0.672930000000     0.119040000000     0.913100000000     0.418927   
C38      C      0.441310000000     0.953400000000     0.128170000000     0.392408   
C39      C      0.678250000000     0.987040000000     0.019520000000     0.389825   
C40      C      0.455350000000     0.102870000000     0.030930000000     0.428351   
C41      C      0.540800000000     0.156980000000     0.455540000000     0.444918   
C42      C      0.302590000000     0.820880000000     0.459840000000     0.430079   
C43      C      0.404400000000     0.045130000000     0.550440000000     0.430411   
C44      C      0.430150000000     0.950450000000     0.313000000000     0.420017   
C45      C      0.565590000000     0.917570000000     0.379890000000     0.368979   
C46      C      0.549300000000     0.003180000000     0.631030000000     0.407513   
C47      C      0.441060000000     0.795690000000     0.488380000000     0.43153    
C48      C      0.677980000000     0.127010000000     0.491030000000     0.390444   
C49      C      0.476890000000     0.302610000000     0.002680000000     0.400562   
C50      C      0.339760000000     0.507440000000     0.999260000000     0.412347   
C51      C      0.338600000000     0.313030000000     0.922340000000     0.42163    
C52      C      0.493480000000     0.503530000000     0.122430000000     0.404109   
C53      C      0.634730000000     0.636650000000     0.020900000000     0.403129   
C54      C      0.494730000000     0.456140000000     0.814740000000     0.404078   
C55      C      0.503420000000     0.652420000000     0.936280000000     0.392114   
C56      C      0.632710000000     0.448370000000     0.925000000000     0.401163   
C57      C      0.528070000000     0.334790000000     0.459290000000     0.421371   
C58      C      0.328950000000     0.464820000000     0.528700000000     0.38486    
C59      C      0.352630000000     0.312310000000     0.397320000000     0.430426   
C60      C      0.499960000000     0.462530000000     0.630000000000     0.429608   
C61      C      0.615720000000     0.642100000000     0.527060000000     0.423798   
C62      C      0.481230000000     0.492400000000     0.306420000000     0.433277   
C63      C      0.445990000000     0.613900000000     0.479650000000     0.438869   
C64      C      0.634500000000     0.490000000000     0.391060000000     0.370488   
C65      C      0.500390000000     0.498700000000     0.741540000000     0.0189814  
C66      C      0.499720000000     0.416930000000     0.750630000000    -0.0734464  
C67      C      0.501640000000     0.500230000000     0.695480000000     0.0478895  
C68      C      0.501770000000     0.418720000000     0.703700000000     0.370499   
C69      C      0.508470000000     0.472040000000     0.196410000000     0.0215278  
C70      C      0.481570000000     0.539020000000     0.186090000000    -0.0741807  
C71      C      0.504090000000     0.468450000000     0.242270000000     0.0462851  
C72      C      0.477390000000     0.535680000000     0.232870000000     0.369786   
C73      C      0.445230000000     0.721690000000     0.527110000000     0.0304823  
C74      C      0.410810000000     0.719470000000     0.450480000000    -0.0527448  
C75      C      0.446530000000     0.675400000000     0.524260000000     0.0539173  
C76      C      0.412670000000     0.673670000000     0.447400000000     0.382055   
C77      C      0.530640000000     0.273830000000     0.415820000000     0.0371849  
C78      C      0.568160000000     0.280770000000     0.491750000000    -0.067277   
C79      C      0.535160000000     0.228890000000     0.414430000000     0.0630249  
C80      C      0.574260000000     0.236730000000     0.490080000000     0.382667   
C81      C      0.573780000000     0.978820000000     0.753990000000     0.0213471  
C82      C      0.541970000000     0.042210000000     0.741480000000    -0.0686661  
C83      C      0.572260000000     0.977030000000     0.706810000000     0.0441916  
C84      C      0.544260000000     0.043160000000     0.694710000000     0.371718   
C85      C      0.444450000000     0.915590000000     0.203260000000     0.0271236  
C86      C      0.409440000000     0.976750000000     0.189800000000    -0.0658853  
C87      C      0.439210000000     0.913250000000     0.249810000000     0.0475095  
C88      C      0.408420000000     0.977490000000     0.236840000000     0.371634   
C89      C      0.504250000000     0.724740000000     0.886900000000     0.0237142  
C90      C      0.536840000000     0.736780000000     0.963270000000    -0.0777765  
C91      C      0.511720000000     0.776350000000     0.881230000000     0.0472874  
C92      C      0.550060000000     0.789730000000     0.956390000000     0.369973   
C93      C      0.448060000000     0.218040000000     0.977680000000     0.0344102  
C94      C      0.478700000000     0.232560000000     0.053990000000    -0.0674707  
C95      C      0.436020000000     0.165410000000     0.986310000000     0.0601868  
C96      C      0.472670000000     0.181390000000     0.061490000000     0.37496    
C97      C      0.714310000000     0.218260000000     0.471570000000     0.0142963  
C98      C      0.774480000000     0.180520000000     0.465600000000    -0.0668236  
C99      C      0.752910000000     0.263500000000     0.446120000000     0.0483031  
C100     C      0.814980000000     0.227070000000     0.442320000000     0.378223   
C101     C      0.159850000000     0.724570000000     0.501430000000     0.00399413 
C102     C      0.216730000000     0.682570000000     0.500800000000    -0.0858616  
C103     C      0.204370000000     0.770600000000     0.481020000000     0.0521668  
C104     C      0.259970000000     0.727760000000     0.477750000000     0.371472   
C105     C      0.734770000000     0.540500000000     0.418050000000     0.00997404 
C106     C      0.683480000000     0.448830000000     0.436550000000    -0.0863369  
C107     C      0.782680000000     0.544230000000     0.447100000000     0.0400712  
C108     C      0.728660000000     0.453020000000     0.468060000000     0.366026   
C109     C      0.228180000000     0.418680000000     0.502470000000     0.0155149  
C110     C      0.284370000000     0.509510000000     0.481510000000    -0.0716866  
C111     C      0.181300000000     0.416460000000     0.473290000000     0.033051   
C112     C      0.238090000000     0.507170000000     0.451570000000     0.365416   
C113     C      0.970540000000     0.525270000000     0.732730000000     0.0185991  
C114     C      0.007140000000     0.465030000000     0.739370000000    -0.0781294  
C115     C      0.972660000000     0.529810000000     0.685870000000     0.0477295  
C116     C      0.010170000000     0.470040000000     0.693130000000     0.378371   
C117     C      0.013260000000     0.433380000000     0.201590000000     0.0176922  
C118     C      0.008150000000     0.512520000000     0.191610000000    -0.0803912  
C119     C      0.010370000000     0.431930000000     0.248180000000     0.0470725  
C120     C      0.006180000000     0.511730000000     0.237590000000     0.372433   
C121     C      0.826530000000     0.217900000000     0.893350000000     0.0234379  
C122     C      0.764910000000     0.255330000000     0.871970000000    -0.0746447  
C123     C      0.776070000000     0.167260000000     0.898540000000     0.0487285  
C124     C      0.715460000000     0.206040000000     0.877990000000     0.376648   
C125     C      0.162420000000     0.729560000000     0.978140000000     0.0201013  
C126     C      0.167940000000     0.727580000000     0.057470000000    -0.068871   
C127     C      0.211320000000     0.779300000000     0.975620000000     0.0410416  
C128     C      0.217230000000     0.779360000000     0.054860000000     0.363822   
C129     C      0.780790000000     0.502030000000     0.979840000000     0.0210437  
C130     C      0.728610000000     0.411440000000     0.002870000000    -0.0740994  
C131     C      0.732880000000     0.497060000000     0.950800000000     0.0422069  
C132     C      0.679850000000     0.406580000000     0.974610000000     0.360005   
C133     C      0.194490000000     0.453370000000     0.940530000000     0.0117498  
C134     C      0.244000000000     0.544780000000     0.920560000000    -0.0815841  
C135     C      0.240730000000     0.459040000000     0.971450000000     0.0445656  
C136     C      0.292910000000     0.549970000000     0.949310000000     0.362107   
C137     C      0.715870000000     0.774090000000     0.486030000000     0.0460937  
C138     C      0.721220000000     0.772510000000     0.565380000000    -0.0601303  
C139     C      0.666510000000     0.724660000000     0.487860000000     0.0475239  
C140     C      0.671480000000     0.720940000000     0.567350000000     0.368711   
C141     C      0.207630000000     0.209050000000     0.372330000000     0.0195888  
C142     C      0.268480000000     0.170050000000     0.388040000000    -0.0696137  
C143     C      0.256560000000     0.258860000000     0.370010000000     0.0446887  
C144     C      0.318760000000     0.221190000000     0.386060000000     0.369203   
C145     C      0.661450000000     0.949080000000     0.357560000000     0.0203013  
C146     C      0.626820000000     0.884450000000     0.418870000000    -0.078216   
C147     C      0.718700000000     0.958460000000     0.369220000000     0.0455203  
C148     C      0.685070000000     0.896990000000     0.432850000000     0.357835   
C149     C      0.259990000000     0.024370000000     0.563280000000     0.0194719  
C150     C      0.287200000000     0.060990000000     0.489240000000    -0.0785357  
C151     C      0.317400000000     0.034600000000     0.575360000000     0.0532005  
C152     C      0.345990000000     0.074500000000     0.502250000000     0.373309   
C153     C      0.001810000000     0.776250000000     0.379090000000     0.030095   
C154     C      0.036620000000     0.790720000000     0.454730000000    -0.0740848  
C155     C      0.993040000000     0.724330000000     0.386570000000     0.0344125  
C156     C      0.021870000000     0.737390000000     0.463510000000     0.358879   
C157     C      0.978790000000     0.190730000000     0.475460000000     0.0232029  
C158     C      0.908210000000     0.161870000000     0.529660000000    -0.0641684  
C159     C      0.985680000000     0.241000000000     0.472300000000     0.0623679  
C160     C      0.917630000000     0.214470000000     0.528330000000     0.377898   
C161     C      0.948930000000     0.926180000000     0.695100000000     0.0193382  
C162     C      0.907840000000     0.982910000000     0.683180000000    -0.0733087  
C163     C      0.943480000000     0.922420000000     0.741510000000     0.0423476  
C164     C      0.906410000000     0.982300000000     0.730360000000     0.367903   
C165     C      0.074030000000     0.013370000000     0.242600000000     0.0187657  
C166     C      0.981200000000     0.936980000000     0.240720000000    -0.0797342  
C167     C      0.073800000000     0.016330000000     0.195100000000     0.0469633  
C168     C      0.983270000000     0.937190000000     0.194220000000     0.369988   
C169     C      0.710590000000     0.771240000000     0.966690000000     0.0170243  
C170     C      0.771450000000     0.732920000000     0.967270000000    -0.0885231  
C171     C      0.670040000000     0.726240000000     0.991510000000     0.0402246  
C172     C      0.732120000000     0.688900000000     0.993930000000     0.361047   
C173     C      0.201980000000     0.211430000000     0.971490000000     0.0147048  
C174     C      0.259600000000     0.172360000000     0.961410000000    -0.0802519  
C175     C      0.242910000000     0.258400000000     0.949350000000     0.0443188  
C176     C      0.301310000000     0.219880000000     0.940140000000     0.374964   
C177     C      0.741860000000     0.965760000000     0.069150000000     0.0207458  
C178     C      0.781950000000     0.040850000000     0.017070000000    -0.0815784  
C179     C      0.798010000000     0.972650000000     0.081280000000     0.0413169  
C180     C      0.838830000000     0.050520000000     0.032190000000     0.358735   
C181     C      0.138820000000     0.885720000000     0.923520000000     0.0204132  
C182     C      0.170570000000     0.936570000000     0.854410000000    -0.078762   
C183     C      0.197290000000     0.899670000000     0.937480000000     0.0344802  
C184     C      0.228150000000     0.947910000000     0.867010000000     0.364903   
C185     C      0.905410000000     0.666080000000     0.931300000000     0.0171136  
C186     C      0.921390000000     0.662320000000     0.010710000000    -0.0764689  
C187     C      0.906830000000     0.713840000000     0.931900000000     0.0503303  
C188     C      0.923770000000     0.710450000000     0.011340000000     0.384232   
C189     C      0.058090000000     0.270310000000     0.002250000000     0.0165456  
C190     C      0.044670000000     0.276650000000     0.922720000000    -0.082085   
C191     C      0.054860000000     0.221840000000     0.000870000000     0.0545665  
C192     C      0.040310000000     0.227670000000     0.921280000000     0.376629   
F1       F      0.501770000000     0.377740000000     0.686590000000    -0.439001   
F2       F      0.461440000000     0.567950000000     0.249180000000    -0.438882   
F3       F      0.394100000000     0.650730000000     0.407640000000    -0.427223   
F4       F      0.598730000000     0.221640000000     0.527510000000    -0.432014   
F5       F      0.528530000000     0.075850000000     0.667740000000    -0.432144   
F6       F      0.390590000000     0.009270000000     0.251590000000    -0.438997   
F7       F      0.570730000000     0.819520000000     0.992370000000    -0.454732   
F8       F      0.489150000000     0.165880000000     0.102760000000    -0.442414   
F9       F      0.862760000000     0.228270000000     0.427290000000    -0.446639   
F10      F      0.308870000000     0.727340000000     0.467750000000    -0.450047   
F11      F      0.720130000000     0.408390000000     0.494060000000    -0.465989   
F12      F      0.246910000000     0.552000000000     0.425810000000    -0.444813   
F13      F      0.034230000000     0.444230000000     0.676210000000    -0.446346   
F14      F      0.003600000000     0.552700000000     0.252440000000    -0.442721   
F15      F      0.661720000000     0.202700000000     0.868790000000    -0.445771   
F16      F      0.244940000000     0.801830000000     0.093720000000    -0.442148   
F17      F      0.630910000000     0.358450000000     0.974410000000    -0.447068   
F18      F      0.341190000000     0.598390000000     0.950930000000    -0.452821   
F19      F      0.653380000000     0.694380000000     0.608200000000    -0.445173   
F20      F      0.372850000000     0.225700000000     0.395990000000    -0.438011   
F21      F      0.694640000000     0.870520000000     0.470650000000    -0.455375   
F22      F      0.386670000000     0.098020000000     0.470480000000    -0.441993   
F23      F      0.027120000000     0.719840000000     0.507160000000    -0.45134    
F24      F      0.886090000000     0.224570000000     0.554930000000    -0.436305   
F25      F      0.885410000000     0.011190000000     0.746090000000    -0.438569   
F26      F      0.936550000000     0.898660000000     0.172230000000    -0.44736    
F27      F      0.747660000000     0.651310000000     0.009140000000    -0.450107   
F28      F      0.346690000000     0.220510000000     0.921800000000    -0.453359   
F29      F      0.885330000000     0.093650000000     0.013440000000    -0.465302   
F30      F      0.270110000000     0.979630000000     0.837500000000    -0.444672   
F31      F      0.930560000000     0.729660000000     0.051990000000    -0.445848   
F32      F      0.033060000000     0.209190000000     0.880220000000    -0.448567   
H1       H      0.026320000000     0.995180000000     0.859030000000     0.211081   
H2       H      0.917060000000     0.040740000000     0.973660000000     0.223899   
H3       H      0.888530000000     0.844120000000     0.994950000000     0.202001   
H4       H      0.104560000000     0.002850000000     0.038280000000     0.20854    
H5       H      0.885860000000     0.076450000000     0.894290000000     0.155954   
H6       H      0.806130000000     0.990400000000     0.950360000000     0.21576    
H7       H      0.805200000000     0.834920000000     0.046700000000     0.145328   
H8       H      0.929250000000     0.814690000000     0.102210000000     0.24251    
H9       H      0.096140000000     0.881230000000     0.032940000000     0.150522   
H10      H      0.181980000000     0.973710000000     0.987420000000     0.210642   
H11      H      0.143850000000     0.108140000000     0.885730000000     0.14437    
H12      H      0.991870000000     0.117910000000     0.817860000000     0.247025   
H13      H      0.997540000000     0.823090000000     0.110240000000     0.241197   
H14      H      0.214270000000     0.010650000000     0.940810000000     0.222276   
H15      H      0.053150000000     0.113250000000     0.830620000000     0.212899   
H16      H      0.756480000000     0.936860000000     0.979380000000     0.227101   
H17      H      0.844650000000     0.893750000000     0.440590000000     0.203592   
H18      H      0.039400000000     0.057130000000     0.369920000000     0.195415   
H19      H      0.005550000000     0.046370000000     0.550810000000     0.206391   
H20      H      0.057540000000     0.906540000000     0.496650000000     0.195556   
H21      H      0.958680000000     0.056900000000     0.311340000000     0.139553   
H22      H      0.962740000000     0.122680000000     0.394230000000     0.216001   
H23      H      0.128450000000     0.161600000000     0.508820000000     0.138376   
H24      H      0.117540000000     0.078820000000     0.591370000000     0.195861   
H25      H      0.022090000000     0.884950000000     0.605790000000     0.149025   
H26      H      0.999600000000     0.825980000000     0.538790000000     0.20546    
H27      H      0.846520000000     0.784550000000     0.421440000000     0.136682   
H28      H      0.834190000000     0.870830000000     0.346390000000     0.194944   
H29      H      0.116470000000     0.031010000000     0.629330000000     0.213824   
H30      H      0.928340000000     0.782110000000     0.541180000000     0.219447   
H31      H      0.837310000000     0.917890000000     0.306640000000     0.214662   
H32      H      0.030000000000     0.153360000000     0.374420000000     0.202796   
H33      H      0.922380000000     0.419200000000     0.063010000000     0.203187   
H34      H      0.891760000000     0.423490000000     0.878380000000     0.197363   
H35      H      0.043220000000     0.605220000000     0.951530000000     0.203044   
H36      H      0.100110000000     0.447680000000     0.970840000000     0.20395    
H37      H      0.798700000000     0.430300000000     0.916560000000     0.140314   
H38      H      0.843910000000     0.527920000000     0.868060000000     0.207459   
H39      H      0.052870000000     0.627300000000     0.860100000000     0.133154   
H40      H      0.191870000000     0.644980000000     0.902780000000     0.201102   
H41      H      0.206180000000     0.570780000000     0.024760000000     0.15309    
H42      H      0.141710000000     0.427150000000     0.054130000000     0.205479   
H43      H      0.929440000000     0.331090000000     0.085540000000     0.130544   
H44      H      0.832520000000     0.295790000000     0.031000000000     0.199557   
H45      H      0.232060000000     0.641020000000     0.949170000000     0.211438   
H46      H      0.124730000000     0.439420000000     0.102010000000     0.214455   
H47      H      0.772970000000     0.303240000000     0.018390000000     0.214607   
H48      H      0.852950000000     0.492660000000     0.832730000000     0.20553    
H49      H      0.897520000000     0.443010000000     0.552100000000     0.206204   
H50      H      0.904180000000     0.436690000000     0.371170000000     0.199879   
H51      H      0.066680000000     0.611950000000     0.447390000000     0.198489   
H52      H      0.077100000000     0.429110000000     0.495970000000     0.193492   
H53      H      0.799110000000     0.452880000000     0.389490000000     0.134704   
H54      H      0.875410000000     0.550870000000     0.349440000000     0.206755   
H55      H      0.085650000000     0.613780000000     0.342110000000     0.151462   
H56      H      0.160900000000     0.639350000000     0.411800000000     0.205184   
H57      H      0.173820000000     0.505180000000     0.536590000000     0.132358   
H58      H      0.096020000000     0.441110000000     0.600200000000     0.229075   
H59      H      0.885040000000     0.355560000000     0.595810000000     0.140529   
H60      H      0.810830000000     0.326120000000     0.526110000000     0.219386   
H61      H      0.214190000000     0.623500000000     0.425780000000     0.268419   
H62      H      0.071670000000     0.380910000000     0.583260000000     0.212383   
H63      H      0.756050000000     0.339320000000     0.509240000000     0.257074   
H64      H      0.887440000000     0.518070000000     0.313450000000     0.219307   
H65      H      0.474560000000     0.920120000000     0.876920000000     0.19794    
H66      H      0.420430000000     0.884180000000     0.054630000000     0.205764   
H67      H      0.631200000000     0.049820000000     0.006110000000     0.194919   
H68      H      0.434820000000     0.061540000000     0.946010000000     0.201504   
H69      H      0.398170000000     0.785180000000     0.032160000000     0.143412   
H70      H      0.554550000000     0.863350000000     0.082700000000     0.241119   
H71      H      0.604540000000     0.047520000000     0.108480000000     0.141174   
H72      H      0.651380000000     0.133900000000     0.049230000000     0.195924   
H73      H      0.544600000000     0.155980000000     0.906090000000     0.17268    
H74      H      0.412340000000     0.083300000000     0.860210000000     0.226872   
H75      H      0.372990000000     0.913500000000     0.831060000000     0.130098   
H76      H      0.341680000000     0.800400000000     0.896220000000     0.198069   
H77      H      0.649030000000     0.184630000000     0.017850000000     0.221289   
H78      H      0.476020000000     0.101830000000     0.837500000000     0.226071   
H79      H      0.350910000000     0.760140000000     0.937410000000     0.211779   
H80      H      0.507820000000     0.861820000000     0.117570000000     0.217027   
H81      H      0.366560000000     0.941540000000     0.399790000000     0.20205    
H82      H      0.449850000000     0.963030000000     0.578680000000     0.214625   
H83      H      0.545020000000     0.894190000000     0.473110000000     0.204126   
H84      H      0.587960000000     0.095410000000     0.436210000000     0.200415   
H85      H      0.307630000000     0.884450000000     0.570600000000     0.143135   
H86      H      0.396990000000     0.844420000000     0.603420000000     0.198153   
H87      H      0.612310000000     0.925690000000     0.586090000000     0.152159   
H88      H      0.645170000000     0.935370000000     0.504450000000     0.217438   
H89      H      0.676060000000     0.068120000000     0.378070000000     0.142367   
H90      H      0.524920000000     0.120150000000     0.318510000000     0.220993   
H91      H      0.417970000000     0.095310000000     0.353810000000     0.170897   
H92      H      0.322540000000     0.000020000000     0.429480000000     0.233458   
H93      H      0.703750000000     0.986830000000     0.481450000000     0.229754   
H94      H      0.577440000000     0.104690000000     0.338140000000     0.198784   
H95      H      0.268880000000     0.956350000000     0.462390000000     0.2191     
H96      H      0.452250000000     0.835990000000     0.629220000000     0.211548   
H97      H      0.406830000000     0.447160000000     0.056000000000     0.20731    
H98      H      0.403540000000     0.431070000000     0.876170000000     0.200396   
H99      H      0.575780000000     0.607580000000     0.945070000000     0.195938   
H100     H      0.577340000000     0.421910000000     0.998780000000     0.207525   
H101     H      0.314520000000     0.465250000000     0.894960000000     0.144523   
H102     H      0.387950000000     0.556380000000     0.847320000000     0.215072   
H103     H      0.593150000000     0.605050000000     0.845180000000     0.1382     
H104     H      0.677020000000     0.629220000000     0.910860000000     0.192229   
H105     H      0.666310000000     0.492360000000     0.043770000000     0.13732    
H106     H      0.586240000000     0.392050000000     0.089540000000     0.210772   
H107     H      0.387770000000     0.326080000000     0.079800000000     0.140196   
H108     H      0.302480000000     0.327700000000     0.029230000000     0.194918   
H109     H      0.725940000000     0.609370000000     0.930370000000     0.224872   
H110     H      0.588330000000     0.437320000000     0.120000000000     0.213121   
H111     H      0.254010000000     0.347980000000     0.009310000000     0.202963   
H112     H      0.389450000000     0.512490000000     0.817160000000     0.204942   
H113     H      0.414550000000     0.415200000000     0.562820000000     0.207666   
H114     H      0.386990000000     0.430640000000     0.377490000000     0.200544   
H115     H      0.545030000000     0.605150000000     0.458400000000     0.202836   
H116     H      0.591070000000     0.442380000000     0.469600000000     0.211144   
H117     H      0.256190000000     0.374950000000     0.422330000000     0.142863   
H118     H      0.339420000000     0.527400000000     0.380600000000     0.251428   
H119     H      0.551930000000     0.636190000000     0.367990000000     0.132173   
H120     H      0.692510000000     0.642350000000     0.410350000000     0.20262    
H121     H      0.700040000000     0.558010000000     0.528360000000     0.1515     
H122     H      0.631740000000     0.422180000000     0.555640000000     0.230763   
H123     H      0.409630000000     0.315310000000     0.564440000000     0.133374   
H124     H      0.304040000000     0.301280000000     0.531540000000     0.201653   
H125     H      0.730660000000     0.633770000000     0.456260000000     0.207887   
H126     H      0.602200000000     0.409880000000     0.605570000000     0.243025   
H127     H      0.251170000000     0.307590000000     0.499020000000     0.205156   
H128     H      0.355950000000     0.511420000000     0.334410000000     0.231806   
H129     H      0.502940000000     0.534600000000     0.675720000000     0.0463636  
H130     H      0.500300000000     0.531900000000     0.754200000000     0.048321   
H131     H      0.498770000000     0.383320000000     0.771450000000     0.104077   
H132     H      0.514570000000     0.440300000000     0.262550000000     0.0419457  
H133     H      0.521910000000     0.446310000000     0.184220000000     0.0422005  
H134     H      0.471650000000     0.566890000000     0.164750000000     0.0992641  
H135     H      0.461140000000     0.659510000000     0.554610000000     0.0501925  
H136     H      0.458930000000     0.739650000000     0.558980000000     0.0484429  
H137     H      0.395650000000     0.735120000000     0.420250000000     0.127515   
H138     H      0.520810000000     0.209260000000     0.383370000000     0.0420429  
H139     H      0.513190000000     0.287190000000     0.385500000000     0.0681811  
H140     H      0.582480000000     0.300720000000     0.522660000000     0.112393   
H141     H      0.583560000000     0.949840000000     0.694670000000     0.0383372  
H142     H      0.585110000000     0.952370000000     0.776160000000     0.0426936  
H143     H      0.528760000000     0.068170000000     0.753530000000     0.104318   
H144     H      0.451910000000     0.887650000000     0.271910000000     0.0441916  
H145     H      0.459810000000     0.890920000000     0.191720000000     0.0420025  
H146     H      0.397370000000     0.002490000000     0.167280000000     0.107389   
H147     H      0.497770000000     0.789770000000     0.849110000000     0.0280657  
H148     H      0.486160000000     0.700610000000     0.858500000000     0.0460694  
H149     H      0.544060000000     0.722410000000     0.997270000000     0.10068    
H150     H      0.420810000000     0.140850000000     0.958170000000     0.0303622  
H151     H      0.441710000000     0.231380000000     0.943150000000     0.0944988  
H152     H      0.495370000000     0.257530000000     0.081840000000     0.0951075  
H153     H      0.740990000000     0.294420000000     0.438120000000     0.0386132  
H154     H      0.674170000000     0.215980000000     0.480610000000     0.0728592  
H155     H      0.783330000000     0.147540000000     0.470850000000     0.1005     
H156     H      0.198270000000     0.805120000000     0.475240000000     0.0378878  
H157     H      0.121410000000     0.725380000000     0.510020000000     0.0845594  
H158     H      0.224160000000     0.648960000000     0.508730000000     0.092382   
H159     H      0.821910000000     0.582380000000     0.448710000000     0.036189   
H160     H      0.738520000000     0.576090000000     0.399100000000     0.0352816  
H161     H      0.645350000000     0.410160000000     0.434040000000     0.0879031  
H162     H      0.141090000000     0.378980000000     0.472170000000     0.0287553  
H163     H      0.222460000000     0.382380000000     0.521380000000     0.0316931  
H164     H      0.324480000000     0.546910000000     0.482670000000     0.105853   
H165     H      0.957730000000     0.555130000000     0.665910000000     0.0400672  
H166     H      0.954660000000     0.547900000000     0.747140000000     0.0451921  
H167     H      0.022550000000     0.439850000000     0.758990000000     0.105495   
H168     H      0.011160000000     0.399210000000     0.269300000000     0.0400548  
H169     H      0.015720000000     0.401540000000     0.188550000000     0.0429584  
H170     H      0.007710000000     0.545650000000     0.170850000000     0.10465    
H171     H      0.782190000000     0.133610000000     0.910790000000     0.0401774  
H172     H      0.869530000000     0.221580000000     0.902680000000     0.0509352  
H173     H      0.758220000000     0.289220000000     0.862220000000     0.0976419  
H174     H      0.227100000000     0.797630000000     0.942430000000     0.0311855  
H175     H      0.142700000000     0.711450000000     0.946680000000     0.027424   
H176     H      0.153990000000     0.706930000000     0.090340000000     0.0947974  
H177     H      0.737260000000     0.532230000000     0.930630000000     0.02398    
H178     H      0.819470000000     0.540390000000     0.980170000000     0.050197   
H179     H      0.725270000000     0.376150000000     0.022270000000     0.0867868  
H180     H      0.235900000000     0.423460000000     0.991150000000     0.0201516  
H181     H      0.157030000000     0.414200000000     0.938640000000     0.0383308  
H182     H      0.246590000000     0.579810000000     0.901280000000     0.0817311  
H183     H      0.646860000000     0.707420000000     0.456030000000     0.0244723  
H184     H      0.732370000000     0.792950000000     0.453110000000     0.0368586  
H185     H      0.743450000000     0.789810000000     0.596610000000     0.0899013  
H186     H      0.249310000000     0.292750000000     0.363580000000     0.0245865  
H187     H      0.164790000000     0.206780000000     0.366670000000     0.0326722  
H188     H      0.274670000000     0.135890000000     0.396750000000     0.0961218  
H189     H      0.753450000000     0.987930000000     0.348350000000     0.0405228  
H190     H      0.654260000000     0.972210000000     0.328680000000     0.0401133  
H191     H      0.591790000000     0.855370000000     0.439660000000     0.0786469  
H192     H      0.326780000000     0.020800000000     0.609090000000     0.0447097  
H193     H      0.227870000000     0.004350000000     0.588810000000     0.0485927  
H194     H      0.276830000000     0.071250000000     0.454640000000     0.095295   
H195     H      0.976160000000     0.699870000000     0.358370000000     0.044883   
H196     H      0.990220000000     0.789540000000     0.345940000000     0.0380509  
H197     H      0.052670000000     0.815480000000     0.482730000000     0.0676209  
H198     H      0.017360000000     0.270130000000     0.449050000000     0.0420194  
H199     H      0.005900000000     0.184580000000     0.454730000000     0.0371166  
H200     H      0.878180000000     0.131590000000     0.553170000000     0.0911542  
H201     H      0.958510000000     0.897920000000     0.762780000000     0.0354361  
H202     H      0.966690000000     0.903680000000     0.682920000000     0.0380128  
H203     H      0.893400000000     0.007320000000     0.661130000000     0.0963216  
H204     H      0.110770000000     0.048710000000     0.178100000000     0.0359876  
H205     H      0.110350000000     0.044330000000     0.260620000000     0.0411997  
H206     H      0.942970000000     0.905630000000     0.257280000000     0.0936693  
H207     H      0.631090000000     0.725760000000     0.000530000000     0.0460007  
H208     H      0.700760000000     0.803400000000     0.957880000000     0.0514583  
H209     H      0.811630000000     0.734260000000     0.959620000000     0.0930417  
H210     H      0.233360000000     0.290900000000     0.944930000000     0.037029   
H211     H      0.162880000000     0.209900000000     0.982180000000     0.045488   
H212     H      0.267230000000     0.138790000000     0.963850000000     0.0961706  
H213     H      0.802290000000     0.943620000000     0.105600000000     0.0448874  
H214     H      0.704760000000     0.931980000000     0.084840000000     0.0496103  
H215     H      0.776970000000     0.068460000000     0.991460000000     0.0834442  
H216     H      0.206090000000     0.884910000000     0.970910000000     0.0409605  
H217     H      0.105130000000     0.862980000000     0.947530000000     0.0369122  
H218     H      0.162080000000     0.954330000000     0.822310000000     0.0926583  
H219     H      0.900370000000     0.732580000000     0.899690000000     0.0399279  
H220     H      0.898570000000     0.650090000000     0.898980000000     0.0400169  
H221     H      0.926330000000     0.642610000000     0.042860000000     0.108795   
H222     H      0.059710000000     0.201990000000     0.032940000000     0.0451846  
H223     H      0.064800000000     0.285520000000     0.034930000000     0.0442101  
H224     H      0.041060000000     0.297320000000     0.890740000000     0.106657   
N1       N      0.498370000000     0.456760000000     0.769300000000    -0.155468   
N2       N      0.501470000000     0.460140000000     0.676150000000    -0.224619   
N3       N      0.495210000000     0.505850000000     0.168010000000    -0.156135   
N4       N      0.487170000000     0.499120000000     0.260750000000    -0.225079   
N5       N      0.431060000000     0.745290000000     0.489340000000    -0.147838   
N6       N      0.434340000000     0.653690000000     0.483540000000    -0.228317   
N7       N      0.542550000000     0.296810000000     0.455680000000    -0.152347   
N8       N      0.552050000000     0.207940000000     0.452800000000    -0.22568    
N9       N      0.555540000000     0.009400000000     0.771150000000    -0.149454   
N10      N      0.556610000000     0.008620000000     0.677040000000    -0.216958   
N11      N      0.430440000000     0.947910000000     0.173230000000    -0.148674   
N12      N      0.424250000000     0.946190000000     0.266930000000    -0.217532   
N13      N      0.514830000000     0.704250000000     0.928510000000    -0.146278   
N14      N      0.535200000000     0.808770000000     0.915880000000    -0.225145   
N15      N      0.467930000000     0.251500000000     0.011630000000    -0.142998   
N16      N      0.450190000000     0.147690000000     0.027750000000    -0.224263   
N17      N      0.723860000000     0.175950000000     0.479740000000    -0.147164   
N18      N      0.804460000000     0.268990000000     0.432940000000    -0.226034   
N19      N      0.165710000000     0.680350000000     0.511180000000    -0.154632   
N20      N      0.254790000000     0.772510000000     0.469540000000    -0.227039   
N21      N      0.684790000000     0.492820000000     0.413430000000    -0.16131    
N22      N      0.779800000000     0.500330000000     0.472030000000    -0.225642   
N23      N      0.280140000000     0.465050000000     0.506130000000    -0.155508   
N24      N      0.185720000000     0.460880000000     0.448340000000    -0.228078   
N25      N      0.986220000000     0.491620000000     0.759150000000    -0.156686   
N26      N      0.990280000000     0.500560000000     0.666070000000    -0.22824    
N27      N      0.010390000000     0.472980000000     0.173420000000    -0.156092   
N28      N      0.005690000000     0.470600000000     0.266120000000    -0.225011   
N29      N      0.820000000000     0.262010000000     0.883870000000    -0.149901   
N30      N      0.720960000000     0.162690000000     0.894910000000    -0.221298   
N31      N      0.144190000000     0.701690000000     0.019000000000    -0.153038   
N32      N      0.241340000000     0.802590000000     0.013930000000    -0.220816   
N33      N      0.779540000000     0.458940000000     0.004890000000    -0.156268   
N34      N      0.681680000000     0.449800000000     0.948910000000    -0.229048   
N35      N      0.194630000000     0.496460000000     0.916470000000    -0.160606   
N36      N      0.291390000000     0.506670000000     0.974630000000    -0.225073   
N37      N      0.745190000000     0.796700000000     0.524680000000    -0.145546   
N38      N      0.647460000000     0.696040000000     0.528360000000    -0.219948   
N39      N      0.213210000000     0.164950000000     0.385380000000    -0.152779   
N40      N      0.311650000000     0.265230000000     0.380850000000    -0.222352   
N41      N      0.616110000000     0.913950000000     0.383600000000    -0.160739   
N42      N      0.731020000000     0.935280000000     0.408560000000    -0.222609   
N43      N      0.243910000000     0.033890000000     0.519370000000    -0.152378   
N44      N      0.359430000000     0.056820000000     0.544200000000    -0.224445   
N45      N      0.024900000000     0.809500000000     0.412980000000    -0.158206   
N46      N      0.001780000000     0.704250000000     0.429060000000    -0.213141   
N47      N      0.940870000000     0.151020000000     0.504280000000    -0.152776   
N48      N      0.956580000000     0.253900000000     0.499280000000    -0.210046   
N49      N      0.931760000000     0.956800000000     0.665900000000    -0.152841   
N50      N      0.924830000000     0.952250000000     0.759570000000    -0.21937    
N51      N      0.026500000000     0.974790000000     0.264870000000    -0.151816   
N52      N      0.028720000000     0.977820000000     0.171140000000    -0.221314   
N53      N      0.761050000000     0.774380000000     0.954000000000    -0.156929   
N54      N      0.679450000000     0.684090000000     0.003780000000    -0.224781   
N55      N      0.210010000000     0.168170000000     0.977320000000    -0.154169   
N56      N      0.294120000000     0.263620000000     0.935630000000    -0.224849   
N57      N      0.733820000000     0.997580000000     0.034760000000    -0.155291   
N58      N      0.846130000000     0.013560000000     0.061290000000    -0.227592   
N59      N      0.127010000000     0.908610000000     0.883850000000    -0.156958   
N60      N      0.242160000000     0.932920000000     0.910000000000    -0.224143   
N61      N      0.918960000000     0.643660000000     0.970240000000    -0.157776   
N62      N      0.922420000000     0.738350000000     0.971330000000    -0.230851   
N63      N      0.048490000000     0.295560000000     0.963440000000    -0.155726   
N64      N      0.041130000000     0.198710000000     0.960780000000    -0.228011   
O1       O      0.168910000000     0.078940000000     0.986130000000    -0.379861   
O2       O      0.119160000000     0.115990000000     0.007510000000    -0.349308   
O3       O      0.936010000000     0.995630000000     0.822410000000    -0.3283     
O4       O      0.931020000000     0.914850000000     0.830560000000    -0.384294   
O5       O      0.007630000000     0.123410000000     0.924440000000    -0.333132   
O6       O      0.029910000000     0.123830000000     0.000090000000    -0.367925   
O7       O      0.094200000000     0.966770000000     0.875320000000    -0.37871    
O8       O      0.031000000000     0.883830000000     0.895690000000    -0.339026   
O9       O      0.159910000000     0.083480000000     0.887530000000    -0.331608   
O10      O      0.180770000000     0.993750000000     0.959390000000    -0.529729   
O11      O      0.012890000000     0.102170000000     0.836240000000    -0.510458   
O12      O      0.877820000000     0.045430000000     0.878640000000    -0.332756   
O13      O      0.049670000000     0.058050000000     0.946060000000    -0.494916   
O14      O      0.015390000000     0.988420000000     0.889920000000    -0.635189   
O15      O      0.960310000000     0.815030000000     0.005930000000    -0.345119   
O16      O      0.933800000000     0.812690000000     0.930980000000    -0.378536   
O17      O      0.892940000000     0.965840000000     0.062630000000    -0.346552   
O18      O      0.946150000000     0.051610000000     0.054670000000    -0.323714   
O19      O      0.802970000000     0.863510000000     0.938610000000    -0.362288   
O20      O      0.849140000000     0.822570000000     0.919230000000    -0.3455     
O21      O      0.005260000000     0.934850000000     0.107090000000    -0.326609   
O22      O      0.047640000000     0.024250000000     0.101220000000    -0.37708    
O23      O      0.969750000000     0.832890000000     0.094180000000    -0.505231   
O24      O      0.095270000000     0.904900000000     0.053490000000    -0.352888   
O25      O      0.790940000000     0.860510000000     0.036640000000    -0.33778    
O26      O      0.796540000000     0.959360000000     0.970980000000    -0.537535   
O27      O      0.916050000000     0.880280000000     0.985990000000    -0.634092   
O28      O      0.951490000000     0.950380000000     0.040300000000    -0.461198   
O29      O      0.034010000000     0.920310000000     0.960350000000    -0.492459   
O30      O      0.934670000000     0.019000000000     0.971060000000    -0.631535   
O31      O      0.071180000000     0.992340000000     0.016770000000    -0.63583    
O32      O      0.897130000000     0.945350000000     0.914660000000    -0.485419   
O33      O      0.972510000000     0.852670000000     0.407370000000    -0.350387   
O34      O      0.070230000000     0.899670000000     0.416840000000    -0.361929   
O35      O      0.824320000000     0.961860000000     0.390470000000    -0.369761   
O36      O      0.803580000000     0.948930000000     0.464640000000    -0.334587   
O37      O      0.969070000000     0.965070000000     0.320600000000    -0.368744   
O38      O      0.065650000000     0.989410000000     0.337990000000    -0.361514   
O39      O      0.835130000000     0.828220000000     0.498620000000    -0.37321    
O40      O      0.816050000000     0.883120000000     0.533140000000    -0.326364   
O41      O      0.870520000000     0.779660000000     0.447670000000    -0.32945    
O42      O      0.959300000000     0.814990000000     0.528460000000    -0.536338   
O43      O      0.850250000000     0.907720000000     0.335870000000    -0.518698   
O44      O      0.925150000000     0.046300000000     0.330140000000    -0.344961   
O45      O      0.972400000000     0.925510000000     0.405550000000    -0.46978    
O46      O      0.885230000000     0.917720000000     0.448430000000    -0.626394   
O47      O      0.986320000000     0.959100000000     0.610510000000    -0.373464   
O48      O      0.907690000000     0.972480000000     0.591010000000    -0.359684   
O49      O      0.126790000000     0.127550000000     0.418890000000    -0.376821   
O50      O      0.158170000000     0.073400000000     0.399000000000    -0.343419   
O51      O      0.997250000000     0.112600000000     0.509770000000    -0.387837   
O52      O      0.899670000000     0.058450000000     0.511150000000    -0.342702   
O53      O      0.149750000000     0.004850000000     0.537690000000    -0.361036   
O54      O      0.168930000000     0.011280000000     0.464030000000    -0.352723   
O55      O      0.105180000000     0.041930000000     0.599760000000    -0.524885   
O56      O      0.060360000000     0.908430000000     0.592290000000    -0.352791   
O57      O      0.106450000000     0.169910000000     0.482930000000    -0.331259   
O58      O      0.002780000000     0.129000000000     0.396450000000    -0.532558   
O59      O      0.999670000000     0.028130000000     0.524340000000    -0.627938   
O60      O      0.084770000000     0.036080000000     0.481540000000    -0.495808   
O61      O      0.945660000000     0.919150000000     0.531100000000    -0.490684   
O62      O      0.023420000000     0.034200000000     0.396830000000    -0.630362   
O63      O      0.036220000000     0.925730000000     0.487820000000    -0.620362   
O64      O      0.933920000000     0.027700000000     0.440800000000    -0.48966    
O65      O      0.037660000000     0.351640000000     0.003850000000    -0.369665   
O66      O      0.026730000000     0.356410000000     0.927180000000    -0.372066   
O67      O      0.833310000000     0.418770000000     0.031700000000    -0.381737   
O68      O      0.878280000000     0.505970000000     0.027160000000    -0.326066   
O69      O      0.840700000000     0.328260000000     0.925300000000    -0.37368    
O70      O      0.915180000000     0.333380000000     0.888740000000    -0.343859   
O71      O      0.018230000000     0.440010000000     0.110700000000    -0.382727   
O72      O      0.994950000000     0.506220000000     0.103660000000    -0.38883    
O73      O      0.968040000000     0.333810000000     0.082050000000    -0.334734   
O74      O      0.114380000000     0.430300000000     0.071100000000    -0.525833   
O75      O      0.814510000000     0.316200000000     0.016340000000    -0.523254   
O76      O      0.785620000000     0.394140000000     0.930970000000    -0.330252   
O77      O      0.951040000000     0.379980000000     0.975020000000    -0.499049   
O78      O      0.941610000000     0.433700000000     0.034910000000    -0.632851   
O79      O      0.133250000000     0.629120000000     0.992110000000    -0.386721   
O80      O      0.064990000000     0.619020000000     0.038730000000    -0.338943   
O81      O      0.970160000000     0.516020000000     0.822930000000    -0.385647   
O82      O      0.992490000000     0.449550000000     0.827530000000    -0.375538   
O83      O      0.933530000000     0.589560000000     0.930490000000    -0.377991   
O84      O      0.953760000000     0.591780000000     0.006340000000    -0.372015   
O85      O      0.133760000000     0.530500000000     0.891540000000    -0.359184   
O86      O      0.099550000000     0.445720000000     0.888580000000    -0.338263   
O87      O      0.195080000000     0.627060000000     0.931560000000    -0.521568   
O88      O      0.185460000000     0.538470000000     0.008330000000    -0.35516    
O89      O      0.010870000000     0.617850000000     0.855980000000    -0.333432   
O90      O      0.867280000000     0.514260000000     0.858000000000    -0.533047   
O91      O      0.031190000000     0.568080000000     0.956310000000    -0.637238   
O92      O      0.040360000000     0.515550000000     0.898250000000    -0.474866   
O93      O      0.063240000000     0.510320000000     0.029060000000    -0.493171   
O94      O      0.918710000000     0.438370000000     0.903930000000    -0.636655   
O95      O      0.069120000000     0.456580000000     0.969070000000    -0.633268   
O96      O      0.912250000000     0.490840000000     0.964280000000    -0.500596   
O97      O      0.957020000000     0.324970000000     0.527010000000    -0.326647   
O98      O      0.986140000000     0.332130000000     0.456540000000    -0.351572   
O99      O      0.827090000000     0.457740000000     0.508500000000    -0.355816   
O100     O      0.878440000000     0.544010000000     0.497820000000    -0.344639   
O101     O      0.833220000000     0.354650000000     0.407660000000    -0.387856   
O102     O      0.899600000000     0.327360000000     0.412930000000    -0.312753   
O103     O      0.990200000000     0.461900000000     0.605670000000    -0.349907   
O104     O      0.975180000000     0.532730000000     0.594140000000    -0.378513   
O105     O      0.921940000000     0.353560000000     0.600730000000    -0.289331   
O106     O      0.067140000000     0.411760000000     0.583790000000    -0.528652   
O107     O      0.796290000000     0.347350000000     0.507600000000    -0.536966   
O108     O      0.780990000000     0.419290000000     0.408800000000    -0.325597   
O109     O      0.925470000000     0.385710000000     0.477440000000    -0.50113    
O110     O      0.920880000000     0.452980000000     0.526150000000    -0.62143    
O111     O      0.124880000000     0.592020000000     0.533090000000    -0.358305   
O112     O      0.068270000000     0.629100000000     0.527620000000    -0.324221   
O113     O      0.996340000000     0.506420000000     0.325510000000    -0.3461     
O114     O      0.996970000000     0.428450000000     0.337600000000    -0.382476   
O115     O      0.987900000000     0.627500000000     0.402550000000    -0.363719   
O116     O      0.988050000000     0.632160000000     0.477880000000    -0.318329   
O117     O      0.135820000000     0.503610000000     0.416110000000    -0.334002   
O118     O      0.088440000000     0.417010000000     0.421120000000    -0.359028   
O119     O      0.174360000000     0.616230000000     0.428270000000    -0.536621   
O120     O      0.190820000000     0.538960000000     0.517430000000    -0.327173   
O121     O      0.048150000000     0.614750000000     0.337160000000    -0.298245   
O122     O      0.898380000000     0.536040000000     0.340790000000    -0.531297   
O123     O      0.043160000000     0.574220000000     0.453100000000    -0.631911   
O124     O      0.046720000000     0.506620000000     0.406330000000    -0.473881   
O125     O      0.040350000000     0.509880000000     0.530030000000    -0.470054   
O126     O      0.926220000000     0.449150000000     0.399240000000    -0.621532   
O127     O      0.052080000000     0.444520000000     0.486250000000    -0.631789   
O128     O      0.916130000000     0.514790000000     0.445500000000    -0.502157   
O129     O      0.338030000000     0.965090000000     0.895230000000    -0.332825   
O130     O      0.313110000000     0.952070000000     0.968110000000    -0.360535   
O131     O      0.475030000000     0.843410000000     0.913200000000    -0.377887   
O132     O      0.572580000000     0.897230000000     0.925020000000    -0.334179   
O133     O      0.328780000000     0.836750000000     0.982260000000    -0.374031   
O134     O      0.318070000000     0.884270000000     0.031710000000    -0.329735   
O135     O      0.503690000000     0.012430000000     0.826010000000    -0.3588     
O136     O      0.575480000000     0.990010000000     0.846600000000    -0.359374   
O137     O      0.383680000000     0.950980000000     0.822970000000    -0.301661   
O138     O      0.443930000000     0.076530000000     0.855620000000    -0.535487   
O139     O      0.360510000000     0.795370000000     0.924660000000    -0.515611   
O140     O      0.438310000000     0.806810000000     0.021250000000    -0.327546   
O141     O      0.394480000000     0.930520000000     0.947140000000    -0.493993   
O142     O      0.479080000000     0.936060000000     0.904520000000    -0.630282   
O143     O      0.637500000000     0.128030000000     0.932760000000    -0.340404   
O144     O      0.665500000000     0.072080000000     0.910830000000    -0.352848   
O145     O      0.483780000000     0.946320000000     0.118660000000    -0.368795   
O146     O      0.410330000000     0.966550000000     0.097740000000    -0.342381   
O147     O      0.639130000000     0.969560000000     0.049160000000    -0.36052    
O148     O      0.668360000000     0.996740000000     0.976930000000    -0.357958   
O149     O      0.507770000000     0.109550000000     0.033790000000    -0.344796   
O150     O      0.410130000000     0.058290000000     0.021220000000    -0.364053   
O151     O      0.633730000000     0.147050000000     0.024520000000    -0.522722   
O152     O      0.541250000000     0.158840000000     0.938170000000    -0.334152   
O153     O      0.607800000000     0.014840000000     0.113350000000    -0.331472   
O154     O      0.533280000000     0.879090000000     0.092730000000    -0.52803    
O155     O      0.590560000000     0.027820000000     0.996730000000    -0.630018   
O156     O      0.504890000000     0.020440000000     0.038530000000    -0.489049   
O157     O      0.541670000000     0.044700000000     0.913100000000    -0.490239   
O158     O      0.441680000000     0.910920000000     0.031120000000    -0.62943    
O159     O      0.451690000000     0.038490000000     0.953800000000    -0.626978   
O160     O      0.531210000000     0.917640000000     0.988990000000    -0.467617   
O161     O      0.514500000000     0.129180000000     0.421310000000    -0.363766   
O162     O      0.552580000000     0.138320000000     0.493740000000    -0.329021   
O163     O      0.306980000000     0.858390000000     0.480690000000    -0.389603   
O164     O      0.343450000000     0.825840000000     0.435470000000    -0.320437   
O165     O      0.389190000000     0.996670000000     0.558840000000    -0.387289   
O166     O      0.454730000000     0.076420000000     0.533950000000    -0.293314   
O167     O      0.443320000000     0.995420000000     0.326850000000    -0.333128   
O168     O      0.427060000000     0.910920000000     0.340110000000    -0.368371   
O169     O      0.397450000000     0.058740000000     0.368000000000    -0.325245   
O170     O      0.538580000000     0.100210000000     0.339840000000    -0.52545    
O171     O      0.309390000000     0.973350000000     0.454530000000    -0.537801   
O172     O      0.294660000000     0.903110000000     0.545930000000    -0.325727   
O173     O      0.447130000000     0.032750000000     0.471440000000    -0.46664    
O174     O      0.400860000000     0.953040000000     0.420450000000    -0.636532   
O175     O      0.571590000000     0.963600000000     0.378430000000    -0.351117   
O176     O      0.517370000000     0.879150000000     0.394380000000    -0.343      
O177     O      0.538260000000     0.958460000000     0.617490000000    -0.373566   
O178     O      0.549150000000     0.041290000000     0.603670000000    -0.327957   
O179     O      0.464150000000     0.821780000000     0.523950000000    -0.362008   
O180     O      0.430620000000     0.815350000000     0.450260000000    -0.357364   
O181     O      0.675050000000     0.089280000000     0.471280000000    -0.379173   
O182     O      0.634960000000     0.122660000000     0.512390000000    -0.328375   
O183     O      0.661810000000     0.967470000000     0.484690000000    -0.539579   
O184     O      0.686640000000     0.048040000000     0.403040000000    -0.330697   
O185     O      0.579420000000     0.891590000000     0.576980000000    -0.345724   
O186     O      0.437480000000     0.852130000000     0.604820000000    -0.523966   
O187     O      0.529930000000     0.918360000000     0.473290000000    -0.628012   
O188     O      0.575700000000     0.998340000000     0.524110000000    -0.503686   
O189     O      0.518520000000     0.984430000000     0.397570000000    -0.46892    
O190     O      0.459140000000     0.966420000000     0.547680000000    -0.635418   
O191     O      0.559930000000     0.060180000000     0.447100000000    -0.636898   
O192     O      0.417760000000     0.891180000000     0.496960000000    -0.489424   
O193     O      0.481750000000     0.329380000000     0.036030000000    -0.359106   
O194     O      0.478710000000     0.321200000000     0.960950000000    -0.321817   
O195     O      0.336880000000     0.463430000000     0.013100000000    -0.396498   
O196     O      0.391110000000     0.548890000000     0.998500000000    -0.30554    
O197     O      0.327100000000     0.351070000000     0.917290000000    -0.385234   
O198     O      0.392010000000     0.321550000000     0.921840000000    -0.313531   
O199     O      0.497220000000     0.464820000000     0.109680000000    -0.379026   
O200     O      0.485980000000     0.537790000000     0.094820000000    -0.373836   
O201     O      0.418810000000     0.351940000000     0.099490000000    -0.338143   
O202     O      0.570940000000     0.414680000000     0.095480000000    -0.536774   
O203     O      0.293030000000     0.352080000000     0.010080000000    -0.527937   
O204     O      0.293730000000     0.429350000000     0.910380000000    -0.34111    
O205     O      0.427260000000     0.383250000000     0.984310000000    -0.504479   
O206     O      0.429420000000     0.455270000000     0.029880000000    -0.619263   
O207     O      0.642200000000     0.596200000000     0.027010000000    -0.329059   
O208     O      0.582630000000     0.630820000000     0.022030000000    -0.34896    
O209     O      0.494710000000     0.496300000000     0.828110000000    -0.382489   
O210     O      0.490660000000     0.416300000000     0.841620000000    -0.36708    
O211     O      0.497120000000     0.625680000000     0.902390000000    -0.353149   
O212     O      0.501360000000     0.633260000000     0.977730000000    -0.341255   
O213     O      0.631240000000     0.491440000000     0.915280000000    -0.372306   
O214     O      0.583560000000     0.405090000000     0.923560000000    -0.314689   
O215     O      0.686740000000     0.604840000000     0.929700000000    -0.518417   
O216     O      0.688010000000     0.522080000000     0.021290000000    -0.319133   
O217     O      0.555930000000     0.606050000000     0.837420000000    -0.332085   
O218     O      0.405270000000     0.535210000000     0.841680000000    -0.536158   
O219     O      0.551110000000     0.570360000000     0.952730000000    -0.634799   
O220     O      0.547600000000     0.497930000000     0.908690000000    -0.471388   
O221     O      0.549520000000     0.509440000000     0.032450000000    -0.478303   
O222     O      0.427670000000     0.444730000000     0.903220000000    -0.619845   
O223     O      0.553380000000     0.438410000000     0.989030000000    -0.633624   
O224     O      0.424210000000     0.515400000000     0.948080000000    -0.493494   
O225     O      0.530130000000     0.349420000000     0.498880000000    -0.361732   
O226     O      0.512460000000     0.353360000000     0.422710000000    -0.367618   
O227     O      0.330290000000     0.421610000000     0.533140000000    -0.381795   
O228     O      0.378060000000     0.508450000000     0.531270000000    -0.326983   
O229     O      0.333410000000     0.330370000000     0.424440000000    -0.391542   
O230     O      0.406610000000     0.336310000000     0.385770000000    -0.33144    
O231     O      0.508370000000     0.429430000000     0.611430000000    -0.34371    
O232     O      0.489390000000     0.497900000000     0.607410000000    -0.391689   
O233     O      0.450510000000     0.324320000000     0.574750000000    -0.301365   
O234     O      0.599330000000     0.415340000000     0.573020000000    -0.52813    
O235     O      0.292280000000     0.320690000000     0.508000000000    -0.521769   
O236     O      0.288180000000     0.411530000000     0.425580000000    -0.348871   
O237     O      0.440460000000     0.378770000000     0.473150000000    -0.497148   
O238     O      0.434170000000     0.430700000000     0.534970000000    -0.633676   
O239     O      0.633560000000     0.623610000000     0.499330000000    -0.395343   
O240     O      0.565970000000     0.614090000000     0.546260000000    -0.326215   
O241     O      0.472910000000     0.525360000000     0.325170000000    -0.341049   
O242     O      0.485440000000     0.453430000000     0.328470000000    -0.388903   
O243     O      0.442140000000     0.598030000000     0.440120000000    -0.331613   
O244     O      0.461910000000     0.595370000000     0.516030000000    -0.382965   
O245     O      0.625120000000     0.528690000000     0.392000000000    -0.358972   
O246     O      0.589330000000     0.444430000000     0.385770000000    -0.342699   
O247     O      0.694120000000     0.622240000000     0.438230000000    -0.522278   
O248     O      0.679270000000     0.528060000000     0.509150000000    -0.357041   
O249     O      0.509680000000     0.624130000000     0.360480000000    -0.292486   
O250     O      0.366490000000     0.522670000000     0.364690000000    -0.52491    
O251     O      0.530600000000     0.567570000000     0.461530000000    -0.641471   
O252     O      0.536790000000     0.516810000000     0.400990000000    -0.475743   
O253     O      0.558100000000     0.504010000000     0.531870000000    -0.495454   
O254     O      0.413600000000     0.443590000000     0.403620000000    -0.635428   
O255     O      0.561000000000     0.452230000000     0.469150000000    -0.640053   
O256     O      0.410560000000     0.494640000000     0.467210000000    -0.49019    
Zr1      Zr     0.099370000000     0.010460000000     0.940370000000     1.39946    
Zr2      Zr     0.964990000000     0.035330000000     0.896260000000     1.396      
Zr3      Zr     0.001340000000     0.902770000000     0.034190000000     1.39963    
Zr4      Zr     0.867350000000     0.929160000000     0.990050000000     1.3892     
Zr5      Zr     0.020750000000     0.040570000000     0.021960000000     1.38628    
Zr6      Zr     0.948760000000     0.897850000000     0.910680000000     1.37472    
Zr7      Zr     0.934320000000     0.868160000000     0.471450000000     1.3661     
Zr8      Zr     0.922530000000     0.974340000000     0.382680000000     1.38392    
Zr9      Zr     0.046690000000     0.977240000000     0.546670000000     1.38515    
Zr10     Zr     0.035280000000     0.084350000000     0.456610000000     1.39192    
Zr11     Zr     0.074670000000     0.985710000000     0.421230000000     1.35224    
Zr12     Zr     0.896970000000     0.970850000000     0.508310000000     1.35247    
Zr13     Zr     0.020960000000     0.416380000000     0.035970000000     1.39553    
Zr14     Zr     0.872680000000     0.398320000000     0.973000000000     1.40238    
Zr15     Zr     0.110030000000     0.549260000000     0.960340000000     1.38791    
Zr16     Zr     0.959670000000     0.531670000000     0.897450000000     1.39312    
Zr17     Zr     0.999230000000     0.421620000000     0.906500000000     1.37834    
Zr18     Zr     0.982980000000     0.527880000000     0.024710000000     1.37553    
Zr19     Zr     0.984890000000     0.416320000000     0.542820000000     1.40994    
Zr20     Zr     0.861540000000     0.421290000000     0.459120000000     1.41418    
Zr21     Zr     0.107320000000     0.538220000000     0.472200000000     1.40415    
Zr22     Zr     0.982100000000     0.542740000000     0.388080000000     1.39844    
Zr23     Zr     0.991290000000     0.412260000000     0.418900000000     1.37323    
Zr24     Zr     0.976440000000     0.547970000000     0.512170000000     1.3719     
Zr25     Zr     0.442140000000     0.996020000000     0.888550000000     1.40227    
Zr26     Zr     0.430720000000     0.870740000000     0.964090000000     1.39339    
Zr27     Zr     0.551990000000     0.086190000000     0.979130000000     1.39319    
Zr28     Zr     0.542060000000     0.960310000000     0.054620000000     1.3974     
Zr29     Zr     0.403780000000     0.971530000000     0.014150000000     1.36074    
Zr30     Zr     0.580380000000     0.984960000000     0.930190000000     1.3568     
Zr31     Zr     0.475900000000     0.039480000000     0.397570000000     1.39617    
Zr32     Zr     0.376050000000     0.946780000000     0.496150000000     1.40508    
Zr33     Zr     0.601440000000     0.004380000000     0.449010000000     1.38469    
Zr34     Zr     0.501560000000     0.911630000000     0.547300000000     1.37744    
Zr35     Zr     0.531600000000     0.053230000000     0.522000000000     1.40087    
Zr36     Zr     0.444930000000     0.898130000000     0.421890000000     1.37847    
Zr37     Zr     0.491250000000     0.416460000000     0.047860000000     1.39086    
Zr38     Zr     0.366890000000     0.422730000000     0.964420000000     1.39262    
Zr39     Zr     0.612120000000     0.531370000000     0.972750000000     1.40643    
Zr40     Zr     0.487050000000     0.538170000000     0.889440000000     1.38795    
Zr41     Zr     0.488450000000     0.403680000000     0.923600000000     1.37981    
Zr42     Zr     0.487760000000     0.549530000000     0.013010000000     1.37224    
Zr43     Zr     0.510610000000     0.409830000000     0.534940000000     1.41043    
Zr44     Zr     0.365510000000     0.401630000000     0.471480000000     1.39432    
Zr45     Zr     0.606230000000     0.545070000000     0.463850000000     1.39037    
Zr46     Zr     0.459500000000     0.537370000000     0.401190000000     1.41851    
Zr47     Zr     0.490860000000     0.422540000000     0.406040000000     1.38971    
Zr48     Zr     0.480970000000     0.525310000000     0.529160000000     1.38395    


