data_structure

_audit_creation_method RASPA-1.0
_audit_creation_date 2023-6-5
_audit_author_name 'Poobodin Mano'

_cell_length_a    33.5904
_cell_length_b    33.4375
_cell_length_c    33.5654
_cell_angle_alpha 89.2564
_cell_angle_beta  89.2564
_cell_angle_gamma 89.2564
_cell_volume      37690.5

_symmetry_cell_setting          triclinic
_symmetry_space_group_name_Hall 'P 1'
_symmetry_space_group_name_H-M  'P 1'
_symmetry_Int_Tables_number     1

_symmetry_equiv_pos_as_xyz 'x,y,z'

loop_
_atom_site_label
_atom_site_type_symbol
_atom_site_fract_x
_atom_site_fract_y
_atom_site_fract_z
_atom_site_charge
C1       C      0.878990000000     0.984700000000     0.377280000000     0.378312   
C2       C      0.980310000000     0.083850000000     0.581150000000     0.379529   
C3       C      0.976730000000     0.080600000000     0.373160000000     0.387884   
C4       C      0.881930000000     0.980640000000     0.584920000000     0.389127   
C5       C      0.979440000000     0.886760000000     0.585300000000     0.387245   
C6       C      0.075420000000     0.977120000000     0.374020000000     0.386836   
C7       C      0.078120000000     0.986790000000     0.581680000000     0.379394   
C8       C      0.979600000000     0.883220000000     0.377700000000     0.378369   
C9       C      0.956800000000     0.378240000000     0.076330000000     0.385206   
C10      C      0.886380000000     0.591130000000     0.957490000000     0.390988   
C11      C      0.876360000000     0.382930000000     0.965900000000     0.381682   
C12      C      0.969210000000     0.586040000000     0.078440000000     0.385169   
C13      C      0.079080000000     0.582670000000     0.987760000000     0.380418   
C14      C      0.992020000000     0.378700000000     0.882160000000     0.383006   
C15      C      0.995340000000     0.586920000000     0.882880000000     0.388062   
C16      C      0.070290000000     0.373670000000     0.993330000000     0.390116   
C17      C      0.577940000000     0.084720000000     0.981890000000     0.377837   
C18      C      0.373200000000     0.979030000000     0.077190000000     0.39034    
C19      C      0.581120000000     0.980220000000     0.078930000000     0.381266   
C20      C      0.370630000000     0.077640000000     0.975890000000     0.387955   
C21      C      0.376040000000     0.979420000000     0.880140000000     0.381837   
C22      C      0.585380000000     0.887430000000     0.976330000000     0.38557    
C23      C      0.378280000000     0.880390000000     0.984340000000     0.381258   
C24      C      0.583320000000     0.989470000000     0.882560000000     0.390373   
C25      C      0.800530000000     0.651020000000     0.922970000000    -0.141431   
C26      C      0.610080000000     0.820680000000     0.981480000000     0.0691097  
C27      C      0.653150000000     0.872600000000     0.960270000000     0.0684545  
C28      C      0.640660000000     0.792540000000     0.977130000000    -0.0934809  
C29      C      0.701790000000     0.734600000000     0.946550000000    -0.0379153  
C30      C      0.731940000000     0.705780000000     0.943220000000    -0.0317257  
C31      C      0.710630000000     0.774220000000     0.956540000000    -0.00542653 
C32      C      0.684060000000     0.845010000000     0.954250000000    -0.0924999  
C33      C      0.772000000000     0.715980000000     0.948450000000    -0.0157371  
C34      C      0.837810000000     0.687830000000     0.970490000000    -0.107809   
C35      C      0.781000000000     0.756010000000     0.956620000000    -0.032082   
C36      C      0.866210000000     0.657300000000     0.970820000000     0.077148   
C37      C      0.829620000000     0.620460000000     0.923800000000     0.184466   
C38      C      0.750720000000     0.784560000000     0.961250000000    -0.0380727  
C39      C      0.678110000000     0.804300000000     0.962630000000     0.0473849  
C40      C      0.803900000000     0.684670000000     0.947110000000     0.0694326  
C41      C      0.827690000000     0.284590000000     0.959120000000    -0.138384   
C42      C      0.596630000000     0.153520000000     0.983140000000     0.0668268  
C43      C      0.646610000000     0.102970000000     0.980640000000     0.0665315  
C44      C      0.625640000000     0.183220000000     0.982290000000    -0.092164   
C45      C      0.695920000000     0.237090000000     0.002560000000    -0.0367453  
C46      C      0.725400000000     0.266350000000     0.000080000000    -0.0307247  
C47      C      0.697290000000     0.203850000000     0.977320000000    -0.00669118 
C48      C      0.676330000000     0.131920000000     0.979140000000    -0.0919613  
C49      C      0.756780000000     0.263380000000     0.971970000000    -0.0159076  
C50      C      0.778940000000     0.335150000000     0.974750000000    -0.103887   
C51      C      0.757760000000     0.230200000000     0.946490000000    -0.0320292  
C52      C      0.808700000000     0.363950000000     0.971870000000     0.074384   
C53      C      0.856760000000     0.314280000000     0.954100000000     0.181153   
C54      C      0.728600000000     0.200750000000     0.949330000000    -0.0381855  
C55      C      0.666050000000     0.172640000000     0.979830000000     0.0465354  
C56      C      0.788240000000     0.294710000000     0.969070000000     0.0673261  
C57      C      0.129740000000     0.680050000000     0.975810000000    -0.137931   
C58      C      0.359320000000     0.812160000000     0.993990000000     0.0701464  
C59      C      0.309850000000     0.861760000000     0.981590000000     0.0691468  
C60      C      0.330270000000     0.782520000000     0.996270000000    -0.0940941  
C61      C      0.257350000000     0.732080000000     0.021360000000    -0.0365045  
C62      C      0.227670000000     0.702930000000     0.021670000000    -0.0311325  
C63      C      0.259050000000     0.761270000000     0.990850000000    -0.00713546 
C64      C      0.280180000000     0.832760000000     0.983020000000    -0.0922016  
C65      C      0.199260000000     0.701950000000     0.991190000000    -0.0153646  
C66      C      0.174740000000     0.631650000000     0.004050000000    -0.101144   
C67      C      0.201660000000     0.730880000000     0.960340000000    -0.0322376  
C68      C      0.144940000000     0.602880000000     0.001870000000     0.0738933  
C69      C      0.101200000000     0.650110000000     0.971130000000     0.181543   
C70      C      0.230870000000     0.760280000000     0.960390000000    -0.037848   
C71      C      0.290190000000     0.792580000000     0.990380000000     0.0480802  
C72      C      0.167390000000     0.670970000000     0.991100000000     0.0656986  
C73      C      0.163770000000     0.316140000000     0.002720000000    -0.140862   
C74      C      0.301230000000     0.092120000000     0.970070000000     0.0715944  
C75      C      0.346930000000     0.144950000000     0.977170000000     0.0711955  
C76      C      0.269530000000     0.119440000000     0.968610000000    -0.0930531  
C77      C      0.207100000000     0.181220000000     0.991600000000    -0.0386578  
C78      C      0.177030000000     0.210270000000     0.994460000000    -0.0336225  
C79      C      0.243430000000     0.190040000000     0.972280000000    -0.00565569 
C80      C      0.315950000000     0.172950000000     0.976400000000    -0.0935557  
C81      C      0.183020000000     0.248730000000     0.978560000000    -0.0158043  
C82      C      0.113500000000     0.275030000000     0.974480000000    -0.106903   
C83      C      0.218710000000     0.257340000000     0.958340000000    -0.0325846  
C84      C      0.085990000000     0.306060000000     0.979710000000     0.0769361  
C85      C      0.135070000000     0.346040000000     0.010050000000     0.181877   
C86      C      0.248490000000     0.228170000000     0.954880000000    -0.0377417  
C87      C      0.276660000000     0.160420000000     0.972030000000     0.048671   
C88      C      0.153020000000     0.280550000000     0.984790000000     0.0690929  
C89      C      0.683340000000     0.998170000000     0.837420000000    -0.146624   
C90      C      0.815230000000     0.971830000000     0.607880000000     0.072335   
C91      C      0.866360000000     0.983790000000     0.654260000000     0.0717709  
C92      C      0.787040000000     0.970140000000     0.638610000000    -0.0947249  
C93      C      0.740440000000     0.946250000000     0.713660000000    -0.0382237  
C94      C      0.710920000000     0.947960000000     0.743200000000    -0.0311778  
C95      C      0.768870000000     0.976510000000     0.710340000000    -0.00741124 
C96      C      0.838820000000     0.982790000000     0.685630000000    -0.0946482  
C97      C      0.709090000000     0.980230000000     0.769620000000    -0.0185807  
C98      C      0.637510000000     0.973910000000     0.789250000000    -0.108928   
C99      C      0.737960000000     0.010220000000     0.766490000000    -0.029839   
C100     C      0.606870000000     0.977870000000     0.817200000000     0.079186   
C101     C      0.651680000000     0.004110000000     0.864410000000     0.187419   
C102     C      0.767710000000     0.008240000000     0.737260000000    -0.0370624  
C103     C      0.798740000000     0.976000000000     0.677850000000     0.0500461  
C104     C      0.676370000000     0.983410000000     0.799420000000     0.0728336  
C105     C      0.324280000000     0.973480000000     0.783540000000    -0.138527   
C106     C      0.094700000000     0.990060000000     0.650760000000     0.0690088  
C107     C      0.146150000000     0.985970000000     0.602100000000     0.0686048  
C108     C      0.122820000000     0.991000000000     0.681220000000    -0.0903423  
C109     C      0.187060000000     0.971020000000     0.741690000000    -0.0376524  
C110     C      0.216180000000     0.970410000000     0.771280000000    -0.0323195  
C111     C      0.194330000000     0.989410000000     0.704310000000    -0.00624855 
C112     C      0.175010000000     0.986420000000     0.631830000000    -0.0908441  
C113     C      0.253550000000     0.987770000000     0.764210000000    -0.0163619  
C114     C      0.277510000000     0.991420000000     0.834980000000    -0.105765   
C115     C      0.260730000000     0.006580000000     0.727150000000    -0.0310186  
C116     C      0.308070000000     0.988130000000     0.862870000000     0.0755115  
C117     C      0.354100000000     0.967950000000     0.812320000000     0.181287   
C118     C      0.231500000000     0.007610000000     0.697740000000    -0.0362758  
C119     C      0.163710000000     0.989050000000     0.672140000000     0.0463187  
C120     C      0.285570000000     0.984860000000     0.794640000000     0.0684108  
C121     C      0.317480000000     0.980280000000     0.172380000000    -0.14151    
C122     C      0.090630000000     0.966470000000     0.305410000000     0.0710425  
C123     C      0.142850000000     0.974510000000     0.351410000000     0.0695282  
C124     C      0.118150000000     0.961600000000     0.274360000000    -0.0932707  
C125     C      0.181550000000     0.978700000000     0.212000000000    -0.0377273  
C126     C      0.211020000000     0.978750000000     0.182360000000    -0.0320779  
C127     C      0.188710000000     0.960350000000     0.249200000000    -0.00598549 
C128     C      0.171110000000     0.970170000000     0.321020000000    -0.0937249  
C129     C      0.248260000000     0.960790000000     0.189540000000    -0.0162047  
C130     C      0.275200000000     0.958180000000     0.120040000000    -0.106991   
C131     C      0.255000000000     0.941180000000     0.226060000000    -0.0321735  
C132     C      0.306200000000     0.964380000000     0.092860000000     0.0786347  
C133     C      0.347520000000     0.988620000000     0.144240000000     0.183545   
C134     C      0.225410000000     0.940730000000     0.255540000000    -0.0377767  
C135     C      0.158930000000     0.963590000000     0.281950000000     0.0486367  
C136     C      0.281020000000     0.965410000000     0.160290000000     0.0712781  
C137     C      0.680420000000     0.972540000000     0.125860000000    -0.137644   
C138     C      0.810900000000     0.989150000000     0.357360000000     0.0668474  
C139     C      0.861830000000     0.983150000000     0.308270000000     0.0675635  
C140     C      0.781780000000     0.990010000000     0.327860000000    -0.091841   
C141     C      0.729730000000     0.013720000000     0.256590000000    -0.036851   
C142     C      0.700620000000     0.013030000000     0.227040000000    -0.030652   
C143     C      0.762040000000     0.986540000000     0.255920000000    -0.00652185 
C144     C      0.833420000000     0.983370000000     0.278070000000    -0.0915051  
C145     C      0.702750000000     0.984840000000     0.196220000000    -0.0159135  
C146     C      0.631120000000     0.990910000000     0.174710000000    -0.103991   
C147     C      0.735140000000     0.957580000000     0.195770000000    -0.0318855  
C148     C      0.601910000000     0.988550000000     0.145560000000     0.0746249  
C149     C      0.650300000000     0.967990000000     0.097440000000     0.180431   
C150     C      0.764460000000     0.958610000000     0.225030000000    -0.0382529  
C151     C      0.792790000000     0.986840000000     0.287620000000     0.0462929  
C152     C      0.671140000000     0.983350000000     0.165110000000     0.0670896  
C153     C      0.005030000000     0.326650000000     0.786190000000    -0.138541   
C154     C      0.976410000000     0.100540000000     0.650170000000     0.0688048  
C155     C      0.985950000000     0.151760000000     0.601780000000     0.0668974  
C156     C      0.976850000000     0.128580000000     0.680750000000    -0.0910099  
C157     C      0.000040000000     0.190060000000     0.741600000000    -0.036555   
C158     C      0.001560000000     0.218680000000     0.771650000000    -0.0314017  
C159     C      0.983440000000     0.199620000000     0.704250000000    -0.00634782 
C160     C      0.987000000000     0.180530000000     0.631670000000    -0.0903042  
C161     C      0.986980000000     0.257740000000     0.765020000000    -0.0164153  
C162     C      0.980900000000     0.280690000000     0.836000000000    -0.105073   
C163     C      0.970190000000     0.267320000000     0.727920000000    -0.032774   
C164     C      0.983810000000     0.310690000000     0.864430000000     0.071524   
C165     C      0.010060000000     0.355660000000     0.815660000000     0.180471   
C166     C      0.968210000000     0.238620000000     0.698040000000    -0.0379043  
C167     C      0.982350000000     0.169250000000     0.671880000000     0.0462422  
C168     C      0.990410000000     0.288850000000     0.796130000000     0.0661173  
C169     C      0.011590000000     0.642100000000     0.788580000000    -0.139682   
C170     C      0.978160000000     0.871060000000     0.654800000000     0.0715995  
C171     C      0.984520000000     0.819090000000     0.607510000000     0.0702022  
C172     C      0.980220000000     0.843220000000     0.686040000000    -0.0941662  
C173     C      0.960230000000     0.770130000000     0.740090000000    -0.0378478  
C174     C      0.962950000000     0.740170000000     0.769290000000    -0.031998   
C175     C      0.989310000000     0.772810000000     0.709880000000    -0.00764386 
C176     C      0.987390000000     0.790650000000     0.637970000000    -0.0944339  
C177     C      0.995120000000     0.712800000000     0.769010000000    -0.0169639  
C178     C      0.986300000000     0.686720000000     0.838670000000    -0.105823   
C179     C      0.024820000000     0.716500000000     0.739330000000    -0.031003   
C180     C      0.987680000000     0.655380000000     0.866260000000     0.072862   
C181     C      0.015040000000     0.611560000000     0.817380000000     0.181449   
C182     C      0.021740000000     0.746010000000     0.709850000000    -0.0370349  
C183     C      0.985410000000     0.802690000000     0.677600000000     0.0497646  
C184     C      0.997400000000     0.680070000000     0.799100000000     0.0678356  
C185     C      0.965460000000     0.685320000000     0.126800000000    -0.138664   
C186     C      0.982950000000     0.814730000000     0.358260000000     0.066875   
C187     C      0.977890000000     0.865640000000     0.308830000000     0.0680826  
C188     C      0.983150000000     0.785310000000     0.329040000000    -0.0906773  
C189     C      0.959810000000     0.728340000000     0.264330000000    -0.0380255  
C190     C      0.958800000000     0.699050000000     0.234980000000    -0.0324358  
C191     C      0.979300000000     0.764820000000     0.257190000000    -0.00476156 
C192     C      0.977710000000     0.836920000000     0.278830000000    -0.0909168  
C193     C      0.976970000000     0.705490000000     0.197530000000    -0.0147549  
C194     C      0.980020000000     0.634090000000     0.175210000000    -0.104921   
C195     C      0.996390000000     0.741910000000     0.190230000000    -0.0335805  
C196     C      0.976810000000     0.605460000000     0.145560000000     0.0761172  
C197     C      0.960190000000     0.655850000000     0.097720000000     0.182408   
C198     C      0.997680000000     0.771130000000     0.219720000000    -0.0390394  
C199     C      0.980210000000     0.796060000000     0.288660000000     0.0458092  
C200     C      0.974840000000     0.674620000000     0.165990000000     0.068143   
C201     C      0.974430000000     0.175840000000     0.316880000000    -0.14167    
C202     C      0.946260000000     0.309300000000     0.091450000000     0.0706313  
C203     C      0.950550000000     0.355970000000     0.143760000000     0.0689453  
C204     C      0.942240000000     0.277980000000     0.118990000000    -0.092575   
C205     C      0.963500000000     0.216320000000     0.181700000000    -0.037634   
C206     C      0.966680000000     0.186600000000     0.211070000000    -0.0322011  
C207     C      0.943180000000     0.252470000000     0.189670000000    -0.00581386 
C208     C      0.947210000000     0.325320000000     0.172050000000    -0.0933992  
C209     C      0.950090000000     0.192670000000     0.249090000000    -0.0162609  
C210     C      0.950930000000     0.122860000000     0.275990000000    -0.107025   
C211     C      0.928670000000     0.228060000000     0.256810000000    -0.0324084  
C212     C      0.959240000000     0.095720000000     0.306650000000     0.0768518  
C213     C      0.984950000000     0.147730000000     0.346410000000     0.180675   
C214     C      0.924930000000     0.257540000000     0.227260000000    -0.0378512  
C215     C      0.943450000000     0.285660000000     0.159860000000     0.0481298  
C216     C      0.957610000000     0.163410000000     0.281410000000     0.0703493  
H1       H      0.917200000000     0.045730000000     0.535880000000     0.209673   
H2       H      0.039430000000     0.044680000000     0.416900000000     0.200015   
H3       H      0.041140000000     0.923030000000     0.536240000000     0.20915    
H4       H      0.916740000000     0.920630000000     0.422610000000     0.204239   
H5       H      0.049130000000     0.113210000000     0.469670000000     0.122419   
H6       H      0.112050000000     0.058270000000     0.468290000000     0.183941   
H7       H      0.101210000000     0.911730000000     0.459450000000     0.147452   
H8       H      0.045190000000     0.845670000000     0.506990000000     0.198846   
H9       H      0.907970000000     0.854560000000     0.481070000000     0.1257     
H10      H      0.843260000000     0.910500000000     0.478580000000     0.185424   
H11      H      0.854940000000     0.054260000000     0.458920000000     0.148067   
H12      H      0.913070000000     0.122440000000     0.503900000000     0.199695   
H13      H      0.048520000000     0.849000000000     0.457300000000     0.202412   
H14      H      0.812880000000     0.950290000000     0.483450000000     0.202457   
H15      H      0.908210000000     0.117580000000     0.454680000000     0.203941   
H16      H      0.143540000000     0.019780000000     0.475900000000     0.203338   
H17      H      0.909670000000     0.542490000000     0.031570000000     0.206513   
H18      H      0.923670000000     0.425990000000     0.909410000000     0.203121   
H19      H      0.048890000000     0.536190000000     0.927280000000     0.203747   
H20      H      0.026970000000     0.419610000000     0.049730000000     0.2006     
H21      H      0.859140000000     0.487050000000     0.890930000000     0.123524   
H22      H      0.925570000000     0.485210000000     0.834980000000     0.184846   
H23      H      0.067770000000     0.461060000000     0.873800000000     0.144137   
H24      H      0.115990000000     0.493930000000     0.924530000000     0.192994   
H25      H      0.090490000000     0.468900000000     0.070790000000     0.121831   
H26      H      0.028480000000     0.473550000000     0.125130000000     0.185778   
H27      H      0.889150000000     0.462390000000     0.092090000000     0.147832   
H28      H      0.833630000000     0.518050000000     0.023680000000     0.198678   
H29      H      0.136920000000     0.457850000000     0.952490000000     0.205618   
H30      H      0.984920000000     0.479830000000     0.149200000000     0.202453   
H31      H      0.835230000000     0.468420000000     0.030780000000     0.20186    
H32      H      0.969350000000     0.484290000000     0.810550000000     0.203365   
H33      H      0.418140000000     0.041330000000     0.040480000000     0.204922   
H34      H      0.539210000000     0.920730000000     0.041640000000     0.203079   
H35      H      0.425220000000     0.919900000000     0.918380000000     0.205161   
H36      H      0.535870000000     0.047780000000     0.918520000000     0.202535   
H37      H      0.481430000000     0.908310000000     0.108930000000     0.126549   
H38      H      0.487220000000     0.845150000000     0.053220000000     0.185371   
H39      H      0.506640000000     0.859230000000     0.911010000000     0.149019   
H40      H      0.470050000000     0.905830000000     0.857100000000     0.192842   
H41      H      0.480500000000     0.057490000000     0.851610000000     0.126122   
H42      H      0.479080000000     0.119970000000     0.906700000000     0.185615   
H43      H      0.494620000000     0.107260000000     0.049120000000     0.149348   
H44      H      0.458460000000     0.058480000000     0.102190000000     0.192934   
H45      H      0.499930000000     0.932920000000     0.827420000000     0.202892   
H46      H      0.470480000000     0.149550000000     0.945830000000     0.202769   
H47      H      0.491530000000     0.034730000000     0.131170000000     0.203167   
H48      H      0.485200000000     0.815310000000     0.013640000000     0.202859   
H49      H      0.659000000000     0.903690000000     0.953000000000     0.0277322  
H50      H      0.891140000000     0.660850000000     0.990430000000     0.0161303  
H51      H      0.758970000000     0.814530000000     0.969340000000     0.0354216  
H52      H      0.723500000000     0.675300000000     0.937400000000     0.0350869  
H53      H      0.841980000000     0.712960000000     0.989920000000     0.0527853  
H54      H      0.671490000000     0.725510000000     0.941500000000     0.036636   
H55      H      0.776080000000     0.649000000000     0.902390000000     0.0646245  
H56      H      0.712110000000     0.855720000000     0.942340000000     0.0507118  
H57      H      0.634760000000     0.761800000000     0.985460000000     0.050227   
H58      H      0.811450000000     0.765490000000     0.959850000000     0.0337652  
H59      H      0.581560000000     0.810070000000     0.992470000000     0.0205087  
H60      H      0.803360000000     0.589550000000     0.877000000000     0.0892386  
H61      H      0.850960000000     0.571200000000     0.890200000000     0.105704   
H62      H      0.656170000000     0.071890000000     0.980130000000     0.0249403  
H63      H      0.799900000000     0.394560000000     0.978250000000     0.0229387  
H64      H      0.730150000000     0.175840000000     0.929020000000     0.0363547  
H65      H      0.723810000000     0.291030000000     0.020630000000     0.0356354  
H66      H      0.748720000000     0.344780000000     0.981470000000     0.0538465  
H67      H      0.672370000000     0.240150000000     0.024700000000     0.0379274  
H68      H      0.835800000000     0.253660000000     0.953660000000     0.0633228  
H69      H      0.707260000000     0.122400000000     0.977730000000     0.0504089  
H70      H      0.616360000000     0.214360000000     0.982660000000     0.0506326  
H71      H      0.780710000000     0.227170000000     0.923760000000     0.0343914  
H72      H      0.565750000000     0.163290000000     0.984530000000     0.022712   
H73      H      0.898620000000     0.273320000000     0.930710000000     0.0865345  
H74      H      0.911730000000     0.323820000000     0.924080000000     0.104941   
H75      H      0.300550000000     0.892430000000     0.975810000000     0.0271521  
H76      H      0.152040000000     0.573280000000     0.013550000000     0.0276183  
H77      H      0.231840000000     0.781900000000     0.936080000000     0.0375039  
H78      H      0.226700000000     0.681540000000     0.046140000000     0.0359652  
H79      H      0.203540000000     0.622800000000     0.015550000000     0.0541681  
H80      H      0.278580000000     0.732230000000     0.045370000000     0.0379239  
H81      H      0.123110000000     0.710110000000     0.965180000000     0.0638064  
H82      H      0.249460000000     0.841850000000     0.978600000000     0.0514933  
H83      H      0.339300000000     0.751740000000     0.001780000000     0.0529338  
H84      H      0.181310000000     0.730600000000     0.935610000000     0.0347833  
H85      H      0.389980000000     0.802790000000     0.998400000000     0.023961   
H86      H      0.064480000000     0.688500000000     0.937240000000     0.0890119  
H87      H      0.052400000000     0.637760000000     0.934070000000     0.111534   
H88      H      0.376770000000     0.156180000000     0.980860000000     0.0241824  
H89      H      0.056170000000     0.301150000000     0.968940000000     0.0271985  
H90      H      0.275660000000     0.235690000000     0.938930000000     0.0369255  
H91      H      0.149730000000     0.203190000000     0.010420000000     0.0373675  
H92      H      0.104190000000     0.247420000000     0.961090000000     0.055629   
H93      H      0.202360000000     0.152370000000     0.005780000000     0.0383612  
H94      H      0.193950000000     0.319610000000     0.013140000000     0.0652642  
H95      H      0.322880000000     0.204210000000     0.980060000000     0.0511173  
H96      H      0.239700000000     0.108430000000     0.964590000000     0.0514152  
H97      H      0.223630000000     0.286780000000     0.945470000000     0.0363024  
H98      H      0.294330000000     0.060690000000     0.967300000000     0.0274013  
H99      H      0.174210000000     0.379160000000     0.044650000000     0.088245   
H100     H      0.124050000000     0.395030000000     0.048230000000     0.100871   
H101     H      0.897140000000     0.989240000000     0.661600000000     0.0265485  
H102     H      0.577580000000     0.968420000000     0.808250000000     0.0190032  
H103     H      0.789060000000     0.032200000000     0.734880000000     0.0376845  
H104     H      0.689480000000     0.924090000000     0.745270000000     0.0351516  
H105     H      0.630620000000     0.963450000000     0.759750000000     0.0550281  
H106     H      0.741070000000     0.921290000000     0.693390000000     0.0377387  
H107     H      0.713110000000     0.006800000000     0.845570000000     0.0660781  
H108     H      0.848850000000     0.987230000000     0.715780000000     0.0516289  
H109     H      0.756120000000     0.965180000000     0.631550000000     0.0521692  
H110     H      0.736950000000     0.035890000000     0.785830000000     0.0344637  
H111     H      0.804790000000     0.967460000000     0.577840000000     0.0237957  
H112     H      0.687680000000     0.034750000000     0.904360000000     0.0872033  
H113     H      0.636280000000     0.039040000000     0.914680000000     0.106846   
H114     H      0.156620000000     0.983770000000     0.571510000000     0.0251742  
H115     H      0.300410000000     0.995440000000     0.893430000000     0.0257585  
H116     H      0.238110000000     0.022900000000     0.669860000000     0.0373401  
H117     H      0.209840000000     0.955220000000     0.799310000000     0.0353895  
H118     H      0.247880000000     0.000120000000     0.844940000000     0.056065   
H119     H      0.159210000000     0.956100000000     0.747890000000     0.0368327  
H120     H      0.330650000000     0.966050000000     0.752740000000     0.0644377  
H121     H      0.206060000000     0.984030000000     0.623060000000     0.0504517  
H122     H      0.112360000000     0.993730000000     0.711710000000     0.0508171  
H123     H      0.289020000000     0.020690000000     0.720910000000     0.0371243  
H124     H      0.063550000000     0.991730000000     0.659490000000     0.0282739  
H125     H      0.393800000000     0.942570000000     0.770570000000     0.0872072  
H126     H      0.408270000000     0.935730000000     0.820390000000     0.0997764  
H127     H      0.153740000000     0.979740000000     0.381130000000     0.0223265  
H128     H      0.300770000000     0.956450000000     0.062190000000     0.0268406  
H129     H      0.231520000000     0.925550000000     0.283540000000     0.0373353  
H130     H      0.205340000000     0.994450000000     0.154530000000     0.03589    
H131     H      0.247060000000     0.947020000000     0.109690000000     0.0560396  
H132     H      0.153820000000     0.994500000000     0.206300000000     0.0369395  
H133     H      0.321440000000     0.988250000000     0.203290000000     0.065387   
H134     H      0.202320000000     0.972770000000     0.328120000000     0.0508366  
H135     H      0.107440000000     0.956060000000     0.244670000000     0.0517131  
H136     H      0.283430000000     0.926780000000     0.232010000000     0.0370753  
H137     H      0.059360000000     0.964590000000     0.298130000000     0.0281071  
H138     H      0.382330000000     0.017570000000     0.186420000000     0.0880095  
H139     H      0.398050000000     0.025490000000     0.136740000000     0.0992596  
H140     H      0.892860000000     0.980480000000     0.299290000000     0.0265292  
H141     H      0.571680000000     0.996160000000     0.154650000000     0.0206667  
H142     H      0.788610000000     0.936860000000     0.223960000000     0.0372717  
H143     H      0.676620000000     0.034930000000     0.228220000000     0.0355245  
H144     H      0.622100000000     0.998500000000     0.204790000000     0.0534926  
H145     H      0.727210000000     0.035910000000     0.279740000000     0.0377827  
H146     H      0.711020000000     0.965810000000     0.117530000000     0.0634279  
H147     H      0.843310000000     0.981200000000     0.247320000000     0.050795   
H148     H      0.750710000000     0.992390000000     0.336660000000     0.0506039  
H149     H      0.737560000000     0.934760000000     0.173270000000     0.0346991  
H150     H      0.800740000000     0.991390000000     0.388040000000     0.0227338  
H151     H      0.690470000000     0.942830000000     0.055990000000     0.0881802  
H152     H      0.640220000000     0.936860000000     0.043790000000     0.107972   
H153     H      0.989830000000     0.162090000000     0.571240000000     0.0279018  
H154     H      0.974460000000     0.303040000000     0.894550000000     0.0205767  
H155     H      0.954410000000     0.247040000000     0.670150000000     0.0365239  
H156     H      0.015150000000     0.210510000000     0.799740000000     0.0357674  
H157     H      0.970050000000     0.251550000000     0.845090000000     0.0523256  
H158     H      0.012730000000     0.160690000000     0.747470000000     0.0373277  
H159     H      0.015070000000     0.332700000000     0.755900000000     0.0641909  
H160     H      0.992080000000     0.211390000000     0.623130000000     0.0508971  
H161     H      0.972370000000     0.118270000000     0.711160000000     0.050334   
H162     H      0.958290000000     0.297060000000     0.722070000000     0.0353299  
H163     H      0.971990000000     0.069530000000     0.658760000000     0.0275066  
H164     H      0.041360000000     0.393470000000     0.776170000000     0.0865636  
H165     H      0.044900000000     0.406680000000     0.826560000000     0.104895   
H166     H      0.986410000000     0.808390000000     0.577180000000     0.0251263  
H167     H      0.976880000000     0.661860000000     0.896120000000     0.0257286  
H168     H      0.044770000000     0.748000000000     0.687030000000     0.0375619  
H169     H      0.939360000000     0.737880000000     0.791470000000     0.0357629  
H170     H      0.976190000000     0.715950000000     0.848360000000     0.0537055  
H171     H      0.934850000000     0.790470000000     0.740420000000     0.0382395  
H172     H      0.021360000000     0.636450000000     0.758250000000     0.0638808  
H173     H      0.991020000000     0.759360000000     0.630540000000     0.0525664  
H174     H      0.978590000000     0.853400000000     0.716540000000     0.0522014  
H175     H      0.050530000000     0.696640000000     0.738820000000     0.0343997  
H176     H      0.974590000000     0.902300000000     0.662520000000     0.0274293  
H177     H      0.046540000000     0.573910000000     0.778090000000     0.0870788  
H178     H      0.047730000000     0.557930000000     0.828240000000     0.106719   
H179     H      0.975620000000     0.896780000000     0.299660000000     0.0268536  
H180     H      0.982790000000     0.574670000000     0.154390000000     0.0226666  
H181     H      0.013540000000     0.798490000000     0.213230000000     0.0384054  
H182     H      0.942980000000     0.671630000000     0.241360000000     0.0358475  
H183     H      0.987400000000     0.624430000000     0.205190000000     0.0541197  
H184     H      0.944590000000     0.722580000000     0.292410000000     0.0373228  
H185     H      0.959320000000     0.716450000000     0.119470000000     0.0641073  
H186     H      0.974850000000     0.846830000000     0.248160000000     0.0502329  
H187     H      0.985970000000     0.754250000000     0.338220000000     0.0509879  
H188     H      0.011000000000     0.747650000000     0.161810000000     0.0379173  
H189     H      0.985250000000     0.804690000000     0.389000000000     0.0264803  
H190     H      0.938380000000     0.698050000000     0.056230000000     0.0875431  
H191     H      0.930420000000     0.647990000000     0.043310000000     0.10657    
H192     H      0.954110000000     0.386070000000     0.154710000000     0.0215118  
H193     H      0.951480000000     0.064810000000     0.301710000000     0.026808   
H194     H      0.908290000000     0.284590000000     0.234150000000     0.0368395  
H195     H      0.983680000000     0.159640000000     0.204630000000     0.0359796  
H196     H      0.938410000000     0.112250000000     0.248540000000     0.055877   
H197     H      0.978470000000     0.211550000000     0.153360000000     0.036991   
H198     H      0.982030000000     0.207030000000     0.320330000000     0.0649656  
H199     H      0.948950000000     0.332740000000     0.203280000000     0.0502929  
H200     H      0.938520000000     0.247910000000     0.108170000000     0.051892   
H201     H      0.915310000000     0.233110000000     0.285890000000     0.0364244  
H202     H      0.945630000000     0.301850000000     0.060130000000     0.0293465  
H203     H      0.015500000000     0.190390000000     0.379310000000     0.0897201  
H204     H      0.024780000000     0.140520000000     0.394480000000     0.102613   
N1       N      0.861070000000     0.622770000000     0.949920000000    -0.210754   
N2       N      0.616200000000     0.860400000000     0.973000000000    -0.192178   
N3       N      0.827530000000     0.591050000000     0.896210000000    -0.217571   
N4       N      0.847680000000     0.353800000000     0.963210000000    -0.206053   
N5       N      0.606910000000     0.113570000000     0.982080000000    -0.188829   
N6       N      0.892030000000     0.303310000000     0.936690000000    -0.217981   
N7       N      0.108000000000     0.611820000000     0.986500000000    -0.205641   
N8       N      0.349290000000     0.851590000000     0.986640000000    -0.187907   
N9       N      0.069520000000     0.659270000000     0.947590000000    -0.218647   
N10      N      0.096910000000     0.342120000000     0.995380000000    -0.20993    
N11      N      0.339690000000     0.104750000000     0.974360000000    -0.190637   
N12      N      0.145070000000     0.376370000000     0.034570000000    -0.218278   
N13      N      0.613850000000     0.991280000000     0.855000000000    -0.211272   
N14      N      0.854620000000     0.978750000000     0.615580000000    -0.190903   
N15      N      0.658830000000     0.025960000000     0.897500000000    -0.219222   
N16      N      0.346490000000     0.977900000000     0.851830000000    -0.204956   
N17      N      0.106170000000     0.987620000000     0.611360000000    -0.186935   
N18      N      0.388380000000     0.949040000000     0.800570000000    -0.216579   
N19      N      0.342600000000     0.978090000000     0.104760000000    -0.208558   
N20      N      0.102850000000     0.972860000000     0.343700000000    -0.191318   
N21      N      0.378920000000     0.010610000000     0.156390000000    -0.216186   
N22      N      0.611100000000     0.978410000000     0.106840000000    -0.205844   
N23      N      0.850740000000     0.985710000000     0.347770000000    -0.18816    
N24      N      0.660680000000     0.949590000000     0.062730000000    -0.218082   
N25      N      0.996140000000     0.348680000000     0.854300000000    -0.20721    
N26      N      0.980870000000     0.111930000000     0.610860000000    -0.187689   
N27      N      0.032020000000     0.388340000000     0.805610000000    -0.218225   
N28      N      0.000140000000     0.617580000000     0.855600000000    -0.208608   
N29      N      0.980500000000     0.859100000000     0.615780000000    -0.191054   
N30      N      0.036340000000     0.578140000000     0.807310000000    -0.219359   
N31      N      0.968130000000     0.615850000000     0.106720000000    -0.20558    
N32      N      0.980200000000     0.854710000000     0.348380000000    -0.188047   
N33      N      0.943440000000     0.667760000000     0.062730000000    -0.218541   
N34      N      0.974550000000     0.107970000000     0.342290000000    -0.208996   
N35      N      0.950980000000     0.347990000000     0.103720000000    -0.190939   
N36      N      0.008620000000     0.160170000000     0.376370000000    -0.216588   
O1       O      0.866870000000     0.984520000000     0.414180000000    -0.36301    
O2       O      0.916290000000     0.983740000000     0.366860000000    -0.351613   
O3       O      0.981860000000     0.096140000000     0.544270000000    -0.35569    
O4       O      0.978260000000     0.046470000000     0.591470000000    -0.351798   
O5       O      0.976840000000     0.093720000000     0.409330000000    -0.364589   
O6       O      0.976570000000     0.043000000000     0.364530000000    -0.357914   
O7       O      0.869080000000     0.978510000000     0.548770000000    -0.357035   
O8       O      0.919050000000     0.984400000000     0.593720000000    -0.356026   
O9       O      0.850730000000     0.039470000000     0.484330000000    -0.34074    
O10      O      0.839450000000     0.939060000000     0.481040000000    -0.512287   
O11      O      0.922200000000     0.111220000000     0.478970000000    -0.513562   
O12      O      0.022130000000     0.124570000000     0.474330000000    -0.329451   
O13      O      0.932870000000     0.028460000000     0.439470000000    -0.467871   
O14      O      0.933570000000     0.029250000000     0.518630000000    -0.609086   
O15      O      0.978320000000     0.873760000000     0.549120000000    -0.363103   
O16      O      0.980240000000     0.924270000000     0.594170000000    -0.35544    
O17      O      0.088360000000     0.979740000000     0.410120000000    -0.366037   
O18      O      0.038110000000     0.977910000000     0.365030000000    -0.355857   
O19      O      0.090410000000     0.986970000000     0.544800000000    -0.351996   
O20      O      0.040800000000     0.985780000000     0.591950000000    -0.349398   
O21      O      0.979660000000     0.871190000000     0.414640000000    -0.360471   
O22      O      0.978680000000     0.920630000000     0.367090000000    -0.350616   
O23      O      0.035290000000     0.856140000000     0.481990000000    -0.513501   
O24      O      0.935190000000     0.843050000000     0.483080000000    -0.32768    
O25      O      0.108670000000     0.929630000000     0.481330000000    -0.339198   
O26      O      0.116680000000     0.030050000000     0.473130000000    -0.513775   
O27      O      0.024470000000     0.939160000000     0.518950000000    -0.610382   
O28      O      0.023990000000     0.938130000000     0.439910000000    -0.468219   
O29      O      0.934000000000     0.938280000000     0.523930000000    -0.473333   
O30      O      0.023340000000     0.028810000000     0.435010000000    -0.619601   
O31      O      0.933030000000     0.937100000000     0.439120000000    -0.625863   
O32      O      0.024530000000     0.030530000000     0.520080000000    -0.474692   
O33      O      0.958080000000     0.414620000000     0.089130000000    -0.367358   
O34      O      0.961490000000     0.368800000000     0.039300000000    -0.353522   
O35      O      0.872730000000     0.555220000000     0.954390000000    -0.361496   
O36      O      0.921990000000     0.598930000000     0.969170000000    -0.361757   
O37      O      0.865140000000     0.420240000000     0.963690000000    -0.358422   
O38      O      0.912820000000     0.371820000000     0.972160000000    -0.353698   
O39      O      0.966890000000     0.549170000000     0.090770000000    -0.354992   
O40      O      0.974270000000     0.595830000000     0.041270000000    -0.352293   
O41      O      0.903320000000     0.487340000000     0.098110000000    -0.340338   
O42      O      0.999960000000     0.477660000000     0.124570000000    -0.513769   
O43      O      0.844760000000     0.492120000000     0.017120000000    -0.51335    
O44      O      0.844400000000     0.487080000000     0.916670000000    -0.326462   
O45      O      0.924840000000     0.444740000000     0.017980000000    -0.46756    
O46      O      0.927540000000     0.524230000000     0.017930000000    -0.608266   
O47      O      0.090240000000     0.545440000000     0.991820000000    -0.35367    
O48      O      0.042140000000     0.593680000000     0.985310000000    -0.350629   
O49      O      0.992410000000     0.415550000000     0.869770000000    -0.365209   
O50      O      0.985720000000     0.368730000000     0.919180000000    -0.355573   
O51      O      0.993620000000     0.550640000000     0.870000000000    -0.359572   
O52      O      0.990960000000     0.596130000000     0.919980000000    -0.361005   
O53      O      0.083960000000     0.409680000000     0.994610000000    -0.366383   
O54      O      0.033160000000     0.365780000000     0.988040000000    -0.357562   
O55      O      0.114980000000     0.476100000000     0.947400000000    -0.510418   
O56      O      0.106470000000     0.476810000000     0.047050000000    -0.334606   
O57      O      0.051480000000     0.482310000000     0.860930000000    -0.351682   
O58      O      0.954330000000     0.484460000000     0.835300000000    -0.512179   
O59      O      0.029860000000     0.519870000000     0.941640000000    -0.611491   
O60      O      0.027590000000     0.440930000000     0.941640000000    -0.467236   
O61      O      0.017650000000     0.523080000000     0.032110000000    -0.473915   
O62      O      0.937710000000     0.442490000000     0.927870000000    -0.624832   
O63      O      0.014090000000     0.437840000000     0.031250000000    -0.619572   
O64      O      0.940960000000     0.527670000000     0.928190000000    -0.474645   
O65      O      0.540900000000     0.096250000000     0.980770000000    -0.363298   
O66      O      0.589040000000     0.047440000000     0.982170000000    -0.354115   
O67      O      0.409440000000     0.977110000000     0.089900000000    -0.358129   
O68      O      0.364130000000     0.980140000000     0.039840000000    -0.356634   
O69      O      0.544360000000     0.978880000000     0.091500000000    -0.359948   
O70      O      0.590810000000     0.984110000000     0.041640000000    -0.353466   
O71      O      0.406580000000     0.091290000000     0.976190000000    -0.358141   
O72      O      0.362370000000     0.039960000000     0.976990000000    -0.354092   
O73      O      0.469160000000     0.110470000000     0.034830000000    -0.34596    
O74      O      0.474730000000     0.123180000000     0.934990000000    -0.512913   
O75      O      0.475500000000     0.035580000000     0.107470000000    -0.513553   
O76      O      0.477360000000     0.935280000000     0.120240000000    -0.327321   
O77      O      0.515410000000     0.028530000000     0.025390000000    -0.466481   
O78      O      0.436310000000     0.025550000000     0.024380000000    -0.607906   
O79      O      0.412640000000     0.983600000000     0.868150000000    -0.354364   
O80      O      0.365730000000     0.977940000000     0.917520000000    -0.350896   
O81      O      0.549570000000     0.873670000000     0.979560000000    -0.368237   
O82      O      0.593600000000     0.925110000000     0.975400000000    -0.358105   
O83      O      0.415310000000     0.868930000000     0.986060000000    -0.353155   
O84      O      0.367240000000     0.917530000000     0.980610000000    -0.351082   
O85      O      0.547110000000     0.988710000000     0.869610000000    -0.364946   
O86      O      0.592250000000     0.987100000000     0.919820000000    -0.357339   
O87      O      0.484280000000     0.930260000000     0.851640000000    -0.51334    
O88      O      0.478260000000     0.030540000000     0.840010000000    -0.326697   
O89      O      0.480970000000     0.854670000000     0.925060000000    -0.34721    
O90      O      0.485330000000     0.841830000000     0.024760000000    -0.511491   
O91      O      0.441460000000     0.936720000000     0.934580000000    -0.612522   
O92      O      0.520210000000     0.939290000000     0.935210000000    -0.464521   
O93      O      0.434410000000     0.028110000000     0.933700000000    -0.473327   
O94      O      0.521600000000     0.937170000000     0.025620000000    -0.623253   
O95      O      0.519160000000     0.030370000000     0.934490000000    -0.62302    
O96      O      0.436600000000     0.934830000000     0.025700000000    -0.472775   
Zr1      Zr     0.896270000000     0.982290000000     0.480970000000     1.29232    
Zr2      Zr     0.979140000000     0.066580000000     0.477470000000     1.28975    
Zr3      Zr     0.978420000000     0.900890000000     0.481230000000     1.29479    
Zr4      Zr     0.061210000000     0.985220000000     0.477870000000     1.29179    
Zr5      Zr     0.977800000000     0.982470000000     0.404640000000     1.26706    
Zr6      Zr     0.979500000000     0.984810000000     0.554000000000     1.26485    
Zr7      Zr     0.966330000000     0.482230000000     0.061680000000     1.29092    
Zr8      Zr     0.896200000000     0.486510000000     0.966690000000     1.28909    
Zr9      Zr     0.058940000000     0.478870000000     0.992940000000     1.28919    
Zr10     Zr     0.988610000000     0.482890000000     0.897900000000     1.29158    
Zr11     Zr     0.974780000000     0.407660000000     0.979480000000     1.26634    
Zr12     Zr     0.980340000000     0.557350000000     0.980160000000     1.26205    
Zr13     Zr     0.474860000000     0.065370000000     0.978580000000     1.29167    
Zr14     Zr     0.477210000000     0.979970000000     0.062450000000     1.29034    
Zr15     Zr     0.479420000000     0.985220000000     0.897300000000     1.29155    
Zr16     Zr     0.481270000000     0.899740000000     0.981480000000     1.29163    
Zr17     Zr     0.552760000000     0.984950000000     0.980370000000     1.26536    
Zr18     Zr     0.403550000000     0.980140000000     0.979100000000     1.26217    


