data_structure

_audit_creation_method RASPA-1.0
_audit_creation_date 2023-6-4
_audit_author_name 'Poobodin Mano'

_cell_length_a    42.4054
_cell_length_b    45.9091
_cell_length_c    46.5364
_cell_angle_alpha 82.778
_cell_angle_beta  96.3094
_cell_angle_gamma 119.436
_cell_volume      78153.8

_symmetry_cell_setting          triclinic
_symmetry_space_group_name_Hall 'P 1'
_symmetry_space_group_name_H-M  'P 1'
_symmetry_Int_Tables_number     1

_symmetry_equiv_pos_as_xyz 'x,y,z'

loop_
_atom_site_label
_atom_site_type_symbol
_atom_site_fract_x
_atom_site_fract_y
_atom_site_fract_z
_atom_site_charge
Br1      Br     0.536020000000     0.553390000000     0.614130000000    -0.23183    
Br2      Br     0.458910000000     0.559760000000     0.090570000000    -0.220679   
Br3      Br     0.509100000000     0.842570000000     0.536250000000    -0.248838   
Br4      Br     0.527180000000     0.389150000000     0.408710000000    -0.244287   
Br5      Br     0.444780000000     0.976880000000     0.831970000000    -0.240516   
Br6      Br     0.396270000000     0.994850000000     0.348070000000    -0.251277   
Br7      Br     0.451300000000     0.852750000000     0.904750000000    -0.25001    
Br8      Br     0.375950000000     0.043620000000     0.011850000000    -0.236184   
Br9      Br     0.668560000000     0.054470000000     0.489950000000    -0.248248   
Br10     Br     0.296390000000     0.897800000000     0.468340000000    -0.249343   
Br11     Br     0.915010000000     0.585360000000     0.497500000000    -0.24694    
Br12     Br     0.340890000000     0.399130000000     0.577760000000    -0.261473   
Br13     Br     0.961060000000     0.552440000000     0.847400000000    -0.236628   
Br14     Br     0.052510000000     0.560290000000     0.108730000000    -0.239835   
Br15     Br     0.939240000000     0.336890000000     0.916330000000    -0.223319   
Br16     Br     0.328260000000     0.861920000000     0.953570000000    -0.241176   
Br17     Br     0.843690000000     0.408640000000     0.068730000000    -0.254315   
Br18     Br     0.130780000000     0.572900000000     0.888100000000    -0.243516   
Br19     Br     0.647580000000     0.591650000000     0.538250000000    -0.255007   
Br20     Br     0.135790000000     0.060040000000     0.398180000000    -0.238246   
Br21     Br     0.863720000000     0.015860000000     0.398530000000    -0.230723   
Br22     Br     0.141980000000     0.043530000000     0.567330000000    -0.256303   
Br23     Br     0.097710000000     0.918160000000     0.451840000000    -0.239391   
Br24     Br     0.873490000000     0.040240000000     0.513370000000    -0.231098   
Br25     Br     0.959320000000     0.902060000000     0.864100000000    -0.24461    
Br26     Br     0.064240000000     0.952120000000     0.120780000000    -0.237352   
Br27     Br     0.547380000000     0.637370000000     0.044950000000    -0.22699    
Br28     Br     0.179100000000     0.059450000000     0.004640000000    -0.245529   
Br29     Br     0.896610000000     0.966150000000     0.098210000000    -0.249766   
Br30     Br     0.356850000000     0.002800000000     0.889960000000    -0.247729   
Br31     Br     0.877710000000     0.549990000000     0.962460000000    -0.258948   
Br32     Br     0.036300000000     0.390270000000     0.904600000000    -0.213664   
C1       C      0.110730000000     0.071940000000     0.004450000000     0.411164   
C2       C      0.949210000000     0.961400000000     0.886200000000     0.402674   
C3       C      0.026710000000     0.098040000000     0.970760000000     0.401207   
C4       C      0.035460000000     0.933090000000     0.926830000000     0.403289   
C5       C      0.956520000000     0.863290000000     0.000840000000     0.396072   
C6       C      0.949280000000     0.019560000000     0.050430000000     0.389921   
C7       C      0.871320000000     0.890970000000     0.966260000000     0.396895   
C8       C      0.033230000000     0.999310000000     0.085980000000     0.413483   
C9       C      0.013640000000     0.902360000000     0.447510000000     0.408276   
C10      C      0.871650000000     0.976410000000     0.459370000000     0.410472   
C11      C      0.015160000000     0.992730000000     0.386520000000     0.40355    
C12      C      0.873770000000     0.890260000000     0.521930000000     0.39168    
C13      C      0.956750000000     0.965540000000     0.585740000000     0.396501   
C14      C      0.102780000000     0.068160000000     0.454820000000     0.404659   
C15      C      0.957880000000     0.057800000000     0.521340000000     0.407404   
C16      C      0.106990000000     0.997640000000     0.512350000000     0.407754   
C17      C      0.027120000000     0.400970000000     0.971030000000     0.407231   
C18      C      0.906690000000     0.478260000000     0.041390000000     0.415781   
C19      C      0.907410000000     0.379770000000     0.940830000000     0.40252    
C20      C      0.027250000000     0.489380000000     0.082690000000     0.409427   
C21      C      0.079310000000     0.589830000000     0.019950000000     0.398279   
C22      C      0.964510000000     0.485270000000     0.877570000000     0.411973   
C23      C      0.956690000000     0.566380000000     0.991120000000     0.413256   
C24      C      0.072190000000     0.499490000000     0.913280000000     0.396602   
C25      C      0.961520000000     0.365120000000     0.499180000000     0.393016   
C26      C      0.891550000000     0.507040000000     0.494720000000     0.410132   
C27      C      0.898950000000     0.380660000000     0.434150000000     0.401259   
C28      C      0.958300000000     0.484480000000     0.576380000000     0.399022   
C29      C      0.067650000000     0.575410000000     0.530620000000     0.394057   
C30      C      0.014280000000     0.475840000000     0.384000000000     0.399107   
C31      C      0.004220000000     0.593350000000     0.459010000000     0.399748   
C32      C      0.075940000000     0.461360000000     0.460410000000     0.381242   
C33      C      0.371430000000     0.973080000000     0.953900000000     0.420184   
C34      C      0.516810000000     0.906860000000     0.942260000000     0.406987   
C35      C      0.374250000000     0.899690000000     0.009000000000     0.405692   
C36      C      0.515200000000     0.994490000000     0.878030000000     0.406529   
C37      C      0.600270000000     0.074910000000     0.938760000000     0.393541   
C38      C      0.465610000000     0.976840000000     0.079550000000     0.393094   
C39      C      0.607670000000     0.993570000000     0.004170000000     0.390514   
C40      C      0.461360000000     0.064710000000     0.013030000000     0.404358   
C41      C      0.507790000000     0.089810000000     0.466440000000     0.402377   
C42      C      0.362520000000     0.882960000000     0.463820000000     0.40929    
C43      C      0.437680000000     0.020090000000     0.540820000000     0.395457   
C44      C      0.436320000000     0.954750000000     0.381110000000     0.410948   
C45      C      0.521730000000     0.936460000000     0.414300000000     0.378539   
C46      C      0.533170000000     0.998110000000     0.578230000000     0.39311    
C47      C      0.452420000000     0.859750000000     0.496570000000     0.416306   
C48      C      0.602120000000     0.068520000000     0.494940000000     0.410097   
C49      C      0.470500000000     0.371940000000     0.005300000000     0.390651   
C50      C      0.395260000000     0.510000000000     0.998740000000     0.401711   
C51      C      0.404070000000     0.383570000000     0.939560000000     0.402001   
C52      C      0.466680000000     0.494250000000     0.078910000000     0.404881   
C53      C      0.573140000000     0.583970000000     0.029520000000     0.403754   
C54      C      0.514850000000     0.477400000000     0.886270000000     0.399187   
C55      C      0.503400000000     0.596780000000     0.957690000000     0.390618   
C56      C      0.581950000000     0.469790000000     0.959770000000     0.381483   
C57      C      0.509790000000     0.394320000000     0.474180000000     0.40991    
C58      C      0.395370000000     0.470840000000     0.547030000000     0.41474    
C59      C      0.398790000000     0.378930000000     0.441930000000     0.397445   
C60      C      0.512800000000     0.483580000000     0.586290000000     0.411513   
C61      C      0.568560000000     0.584800000000     0.527730000000     0.410571   
C62      C      0.459550000000     0.486340000000     0.379650000000     0.401324   
C63      C      0.446930000000     0.564890000000     0.493080000000     0.40401    
C64      C      0.565300000000     0.498910000000     0.419310000000     0.380848   
C65      C      0.533230000000     0.507490000000     0.661650000000    -0.129349   
C66      C      0.518970000000     0.447540000000     0.849460000000     0.0715098  
C67      C      0.532460000000     0.504260000000     0.839210000000     0.0712485  
C68      C      0.524310000000     0.445930000000     0.820660000000    -0.0918435  
C69      C      0.510490000000     0.445220000000     0.754670000000    -0.0352556  
C70      C      0.509770000000     0.446380000000     0.724450000000    -0.0307379  
C71      C      0.536550000000     0.472770000000     0.769510000000    -0.00460411 
C72      C      0.538120000000     0.503560000000     0.810510000000    -0.0924985  
C73      C      0.535000000000     0.475150000000     0.708560000000    -0.0117173  
C74      C      0.525010000000     0.452020000000     0.660500000000    -0.102016   
C75      C      0.562300000000     0.501850000000     0.723520000000    -0.0309546  
C76      C      0.520100000000     0.455040000000     0.630380000000     0.0788013  
C77      C      0.527960000000     0.509900000000     0.631420000000     0.190725   
C78      C      0.563160000000     0.500610000000     0.753690000000    -0.0351174  
C79      C      0.533660000000     0.474110000000     0.800750000000     0.0501054  
C80      C      0.531330000000     0.478280000000     0.676470000000     0.0707567  
C81      C      0.452070000000     0.522910000000     0.144980000000    -0.127604   
C82      C      0.454960000000     0.464550000000     0.334630000000     0.0734372  
C83      C      0.448950000000     0.513190000000     0.335130000000     0.0721053  
C84      C      0.450530000000     0.466120000000     0.304470000000    -0.0916749  
C85      C      0.420590000000     0.465760000000     0.242360000000    -0.0361911  
C86      C      0.421270000000     0.466980000000     0.212340000000    -0.0313982  
C87      C      0.442720000000     0.494560000000     0.257140000000    -0.00491535 
C88      C      0.444890000000     0.515740000000     0.304860000000    -0.0927973  
C89      C      0.444330000000     0.496960000000     0.196470000000    -0.0118246  
C90      C      0.451890000000     0.470410000000     0.156220000000    -0.103162   
C91      C      0.464930000000     0.526260000000     0.211050000000    -0.0308495  
C92      C      0.457470000000     0.470450000000     0.127380000000     0.0774689  
C93      C      0.457570000000     0.522430000000     0.115850000000     0.185964   
C94      C      0.464070000000     0.525070000000     0.241150000000    -0.034947   
C95      C      0.445670000000     0.492020000000     0.289240000000     0.0504459  
C96      C      0.449130000000     0.496760000000     0.165410000000     0.0690836  
C97      C      0.448650000000     0.779820000000     0.524450000000    -0.131695   
C98      C      0.428540000000     0.590320000000     0.524210000000     0.0730252  
C99      C      0.425220000000     0.602540000000     0.473320000000     0.0727233  
C100     C      0.415260000000     0.611620000000     0.528600000000    -0.0934725  
C101     C      0.416320000000     0.675750000000     0.534940000000    -0.035378   
C102     C      0.417040000000     0.706090000000     0.536710000000    -0.0307747  
C103     C      0.402180000000     0.658550000000     0.509620000000    -0.0047585  
C104     C      0.413700000000     0.625420000000     0.477010000000    -0.0925508  
C105     C      0.405220000000     0.720840000000     0.512770000000    -0.0125961  
C106     C      0.395040000000     0.769500000000     0.494170000000    -0.104607   
C107     C      0.387690000000     0.702090000000     0.488700000000    -0.0310494  
C108     C      0.408430000000     0.803960000000     0.489350000000     0.0826588  
C109     C      0.460900000000     0.814240000000     0.520060000000     0.189344   
C110     C      0.385530000000     0.670990000000     0.487430000000    -0.0366285  
C111     C      0.409040000000     0.630680000000     0.504990000000     0.0496129  
C112     C      0.415600000000     0.756950000000     0.511300000000     0.0706289  
C113     C      0.528920000000     0.335040000000     0.443070000000    -0.132453   
C114     C      0.493740000000     0.131760000000     0.444110000000     0.0727501  
C115     C      0.542810000000     0.145820000000     0.479300000000     0.0734926  
C116     C      0.498300000000     0.164050000000     0.442830000000    -0.0923137  
C117     C      0.517790000000     0.236460000000     0.436970000000    -0.0358324  
C118     C      0.517060000000     0.266090000000     0.439010000000    -0.0307717  
C119     C      0.529190000000     0.221520000000     0.461050000000    -0.00487818 
C120     C      0.549150000000     0.178680000000     0.477620000000    -0.093816   
C121     C      0.529160000000     0.282420000000     0.464820000000    -0.0127707  
C122     C      0.520310000000     0.320020000000     0.494010000000    -0.103827   
C123     C      0.542440000000     0.268450000000     0.488380000000    -0.0315357  
C124     C      0.516240000000     0.348010000000     0.495660000000     0.0772572  
C125     C      0.523160000000     0.362120000000     0.444950000000     0.18694    
C126     C      0.541820000000     0.238110000000     0.486720000000    -0.0362948  
C127     C      0.525960000000     0.187940000000     0.460060000000     0.0499735  
C128     C      0.526540000000     0.313070000000     0.467430000000     0.0695388  
C129     C      0.502810000000     0.993660000000     0.797990000000    -0.128991   
C130     C      0.548830000000     0.030640000000     0.619120000000     0.0707259  
C131     C      0.544410000000     0.976780000000     0.625350000000     0.0713658  
C132     C      0.553430000000     0.032750000000     0.649250000000    -0.0903351  
C133     C      0.574200000000     0.032550000000     0.715430000000    -0.0356561  
C134     C      0.571090000000     0.031400000000     0.745350000000    -0.0312909  
C135     C      0.550800000000     0.004670000000     0.699770000000    -0.0042838  
C136     C      0.548800000000     0.978030000000     0.655390000000    -0.0918685  
C137     C      0.544090000000     0.002590000000     0.759900000000    -0.0115439  
C138     C      0.564410000000     0.008440000000     0.812810000000    -0.101276   
C139     C      0.521210000000     0.974630000000     0.744310000000    -0.030978   
C140     C      0.556080000000     0.005460000000     0.841750000000     0.0786343  
C141     C      0.495110000000     0.991250000000     0.826920000000     0.188618   
C142     C      0.524620000000     0.975590000000     0.714690000000    -0.0346683  
C143     C      0.552150000000     0.005700000000     0.667800000000     0.0494262  
C144     C      0.537420000000     0.002060000000     0.790660000000     0.0699327  
C145     C      0.414320000000     0.969490000000     0.303690000000    -0.128798   
C146     C      0.478830000000     0.964810000000     0.129370000000     0.070625   
C147     C      0.430140000000     0.976310000000     0.116480000000     0.0707468  
C148     C      0.471390000000     0.959730000000     0.158630000000    -0.0929341  
C149     C      0.428210000000     0.929080000000     0.214750000000    -0.0364857  
C150     C      0.423690000000     0.925740000000     0.244560000000    -0.0306806  
C151     C      0.436070000000     0.959370000000     0.198210000000    -0.0044487  
C152     C      0.422590000000     0.972270000000     0.145740000000    -0.0908123  
C153     C      0.427860000000     0.952940000000     0.258720000000    -0.0111014  
C154     C      0.436260000000     0.929760000000     0.309570000000    -0.100649   
C155     C      0.435470000000     0.983190000000     0.241800000000    -0.0301847  
C156     C      0.436880000000     0.929870000000     0.339670000000     0.0803342  
C157     C      0.416080000000     0.969810000000     0.333910000000     0.189166   
C158     C      0.439090000000     0.986200000000     0.211890000000    -0.035702   
C159     C      0.443170000000     0.963620000000     0.167090000000     0.0491781  
C160     C      0.425780000000     0.950410000000     0.290990000000     0.0685326  
C161     C      0.500610000000     0.827320000000     0.918700000000    -0.129878   
C162     C      0.503720000000     0.644740000000     0.972830000000     0.0736215  
C163     C      0.520840000000     0.646780000000     0.925570000000     0.0690865  
C164     C      0.510950000000     0.678060000000     0.968160000000    -0.0861507  
C165     C      0.547560000000     0.754120000000     0.958220000000    -0.0362696  
C166     C      0.550500000000     0.786100000000     0.954730000000    -0.03031    
C167     C      0.530250000000     0.731710000000     0.936420000000    -0.0030206  
C168     C      0.527940000000     0.680170000000     0.920040000000    -0.0890184  
C169     C      0.535930000000     0.796400000000     0.929450000000    -0.0117896  
C170     C      0.562260000000     0.857780000000     0.937610000000    -0.10121    
C171     C      0.520180000000     0.774610000000     0.907080000000    -0.0306756  
C172     C      0.557110000000     0.885430000000     0.939560000000     0.0793526  
C173     C      0.496070000000     0.855020000000     0.921350000000     0.191366   
C174     C      0.517520000000     0.742710000000     0.910470000000    -0.0356633  
C175     C      0.523380000000     0.696360000000     0.941590000000     0.0478078  
C176     C      0.533380000000     0.827850000000     0.927970000000     0.0689554  
C177     C      0.414250000000     0.111550000000     0.025460000000    -0.126651   
C178     C      0.463870000000     0.322050000000     0.988570000000     0.0703987  
C179     C      0.454760000000     0.322430000000     0.037800000000     0.0678611  
C180     C      0.456260000000     0.288630000000     0.993180000000    -0.0919572  
C181     C      0.461500000000     0.228150000000     0.049160000000    -0.035771   
C182     C      0.460440000000     0.196950000000     0.051520000000    -0.0318291  
C183     C      0.442620000000     0.236780000000     0.025990000000    -0.00492016 
C184     C      0.447700000000     0.289040000000     0.043300000000    -0.0909228  
C185     C      0.440080000000     0.173480000000     0.030990000000    -0.0106947  
C186     C      0.478660000000     0.146250000000     0.032140000000    -0.10285    
C187     C      0.419380000000     0.181300000000     0.008890000000    -0.0318922  
C188     C      0.483120000000     0.119180000000     0.027390000000     0.0811878  
C189     C      0.419400000000     0.084290000000     0.021330000000     0.186382   
C190     C      0.420820000000     0.212670000000     0.006310000000    -0.0359178  
C191     C      0.448310000000     0.271700000000     0.020800000000     0.0468077  
C192     C      0.444080000000     0.143060000000     0.030360000000     0.0683798  
C193     C      0.698520000000     0.125280000000     0.484090000000    -0.131298   
C194     C      0.836730000000     0.340680000000     0.428750000000     0.072959   
C195     C      0.880760000000     0.322580000000     0.432900000000     0.0725167  
C196     C      0.809340000000     0.307970000000     0.434500000000    -0.0954282  
C197     C      0.772490000000     0.248010000000     0.478000000000    -0.0363466  
C198     C      0.744220000000     0.217730000000     0.488890000000    -0.0317857  
C199     C      0.790330000000     0.249320000000     0.453770000000    -0.00549745 
C200     C      0.853780000000     0.289230000000     0.438780000000    -0.0922713  
C201     C      0.732780000000     0.188050000000     0.475540000000    -0.0122272  
C202     C      0.670290000000     0.156670000000     0.494930000000    -0.102606   
C203     C      0.751520000000     0.189300000000     0.451750000000    -0.0309004  
C204     C      0.638600000000     0.126540000000     0.500740000000     0.078337   
C205     C      0.666310000000     0.095530000000     0.489620000000     0.19221    
C206     C      0.780250000000     0.219630000000     0.441120000000    -0.0360107  
C207     C      0.818040000000     0.282190000000     0.441300000000     0.0503193  
C208     C      0.700340000000     0.156340000000     0.485340000000     0.0690738  
C209     C      0.266560000000     0.827050000000     0.475930000000    -0.130666   
C210     C      0.129670000000     0.614170000000     0.539560000000     0.0713208  
C211     C      0.086430000000     0.633290000000     0.533290000000     0.0702309  
C212     C      0.157680000000     0.646660000000     0.534060000000    -0.0948668  
C213     C      0.193790000000     0.704300000000     0.487990000000    -0.0362075  
C214     C      0.221210000000     0.733930000000     0.475310000000    -0.0316252  
C215     C      0.177430000000     0.704690000000     0.512480000000    -0.00533301 
C216     C      0.113990000000     0.666380000000     0.527670000000    -0.0916059  
C217     C      0.233310000000     0.764620000000     0.487140000000    -0.0116406  
C218     C      0.293880000000     0.795180000000     0.464370000000    -0.102105   
C219     C      0.216240000000     0.764950000000     0.511420000000    -0.0302722  
C220     C      0.325150000000     0.825190000000     0.457260000000     0.0806816  
C221     C      0.298450000000     0.856620000000     0.469280000000     0.194059   
C222     C      0.188300000000     0.735280000000     0.523780000000    -0.0354307  
C223     C      0.149620000000     0.672700000000     0.526090000000     0.049766   
C224     C      0.264710000000     0.795880000000     0.475280000000     0.0702238  
C225     C      0.838010000000     0.550590000000     0.493920000000    -0.129726   
C226     C      0.608480000000     0.479500000000     0.427320000000     0.0684492  
C227     C      0.628450000000     0.537870000000     0.423390000000     0.074137   
C228     C      0.643000000000     0.485220000000     0.437610000000    -0.0893946  
C229     C      0.705340000000     0.503560000000     0.482550000000    -0.0339571  
C230     C      0.737610000000     0.505620000000     0.495250000000    -0.0310596  
C231     C      0.705440000000     0.523470000000     0.457010000000    -0.00272638 
C232     C      0.663530000000     0.544590000000     0.433360000000    -0.0867992  
C233     C      0.770700000000     0.527440000000     0.482570000000    -0.0118254  
C234     C      0.798880000000     0.490940000000     0.494570000000    -0.104707   
C235     C      0.771170000000     0.549200000000     0.458250000000    -0.0300414  
C236     C      0.829200000000     0.486580000000     0.497560000000     0.080826   
C237     C      0.868350000000     0.545430000000     0.497580000000     0.189646   
C238     C      0.738730000000     0.547300000000     0.445600000000    -0.0350703  
C239     C      0.670520000000     0.517910000000     0.441980000000     0.0520743  
C240     C      0.802980000000     0.523210000000     0.491470000000     0.0699457  
C241     C      0.302780000000     0.436420000000     0.564970000000    -0.132582   
C242     C      0.139340000000     0.488250000000     0.471520000000     0.070446   
C243     C      0.104840000000     0.429090000000     0.479510000000     0.0694946  
C244     C      0.169730000000     0.487900000000     0.485920000000    -0.0945521  
C245     C      0.220660000000     0.482880000000     0.534350000000    -0.0358233  
C246     C      0.252140000000     0.484510000000     0.548780000000    -0.0318974  
C247     C      0.199130000000     0.457580000000     0.515560000000    -0.00527542 
C248     C      0.134870000000     0.427810000000     0.494180000000    -0.0914278  
C249     C      0.262740000000     0.460790000000     0.544840000000    -0.011784   
C250     C      0.329910000000     0.496330000000     0.555290000000    -0.101549   
C251     C      0.240390000000     0.434750000000     0.526910000000    -0.0307142  
C252     C      0.364090000000     0.498340000000     0.557630000000     0.0822623  
C253     C      0.337230000000     0.439280000000     0.566580000000     0.19413    
C254     C      0.208960000000     0.433130000000     0.512510000000    -0.0357188  
C255     C      0.167460000000     0.457630000000     0.498370000000     0.0493715  
C256     C      0.298630000000     0.464740000000     0.556510000000     0.0700225  
C257     C      0.949640000000     0.513290000000     0.801600000000    -0.128865   
C258     C      0.944700000000     0.458110000000     0.624110000000     0.0717268  
C259     C      0.954120000000     0.513620000000     0.613740000000     0.0721709  
C260     C      0.940140000000     0.458780000000     0.653090000000    -0.0932291  
C261     C      0.916440000000     0.460300000000     0.710960000000    -0.0351805  
C262     C      0.917810000000     0.460020000000     0.741080000000    -0.0311579  
C263     C      0.940650000000     0.488950000000     0.694250000000    -0.00448184 
C264     C      0.949590000000     0.515100000000     0.642760000000    -0.0911145  
C265     C      0.943080000000     0.488530000000     0.755070000000    -0.011084   
C266     C      0.949360000000     0.460730000000     0.803310000000    -0.100607   
C267     C      0.966010000000     0.517750000000     0.738330000000    -0.03008    
C268     C      0.955200000000     0.460880000000     0.833350000000     0.08145    
C269     C      0.955190000000     0.512860000000     0.831820000000     0.189399   
C270     C      0.964890000000     0.517940000000     0.708200000000    -0.0341444  
C271     C      0.942840000000     0.487530000000     0.662880000000     0.0503863  
C272     C      0.946870000000     0.487280000000     0.787110000000     0.071183   
C273     C      0.042040000000     0.513440000000     0.157380000000    -0.130657   
C274     C      0.016790000000     0.446980000000     0.345560000000     0.0710883  
C275     C      0.034010000000     0.504810000000     0.337980000000     0.071263   
C276     C      0.020850000000     0.446260000000     0.316200000000    -0.0924272  
C277     C      0.048910000000     0.461160000000     0.253680000000    -0.0347273  
C278     C      0.050830000000     0.463510000000     0.223530000000    -0.0318971  
C279     C      0.030630000000     0.474900000000     0.265660000000    -0.00719219 
C280     C      0.038230000000     0.504950000000     0.308790000000    -0.0938337  
C281     C      0.034340000000     0.479480000000     0.205010000000    -0.0105997  
C282     C      0.033830000000     0.457740000000     0.157930000000    -0.101652   
C283     C      0.014900000000     0.491940000000     0.217150000000    -0.0330514  
C284     C      0.032810000000     0.461200000000     0.127650000000     0.0774557  
C285     C      0.040790000000     0.516260000000     0.127110000000     0.190469   
C286     C      0.013160000000     0.489750000000     0.247070000000    -0.0296901  
C287     C      0.030560000000     0.475300000000     0.297380000000     0.051118   
C288     C      0.037170000000     0.483610000000     0.173090000000     0.0696185  
C289     C      0.862850000000     0.296520000000     0.911010000000    -0.127125   
C290     C      0.636150000000     0.133560000000     0.927280000000     0.0707863  
C291     C      0.659790000000     0.097700000000     0.920990000000     0.0690226  
C292     C      0.668550000000     0.161720000000     0.919590000000    -0.0920056  
C293     C      0.734070000000     0.217400000000     0.891400000000    -0.0362716  
C294     C      0.765270000000     0.248720000000     0.891880000000    -0.0320286  
C295     C      0.733310000000     0.189070000000     0.907640000000    -0.0048677  
C296     C      0.693170000000     0.125710000000     0.913560000000    -0.0906131  
C297     C      0.796670000000     0.252460000000     0.908290000000    -0.0115267  
C298     C      0.818150000000     0.309000000000     0.924780000000    -0.100845   
C299     C      0.797130000000     0.223700000000     0.922350000000    -0.031509   
C300     C      0.845820000000     0.339930000000     0.932930000000     0.0765737  
C301     C      0.890360000000     0.328310000000     0.918760000000     0.185137   
C302     C      0.765670000000     0.192230000000     0.922090000000    -0.0356683  
C303     C      0.697870000000     0.158270000000     0.913010000000     0.0481649  
C304     C      0.826420000000     0.286610000000     0.914140000000     0.067221   
C305     C      0.284180000000     0.826060000000     0.001070000000    -0.134152   
C306     C      0.093890000000     0.638700000000     0.043780000000     0.0771822  
C307     C      0.139950000000     0.634250000000     0.023250000000     0.0756814  
C308     C      0.118620000000     0.672020000000     0.049600000000    -0.089992   
C309     C      0.177460000000     0.746470000000     0.024620000000    -0.0356143  
C310     C      0.206650000000     0.779050000000     0.020950000000    -0.0304822  
C311     C      0.180930000000     0.722320000000     0.044360000000    -0.00458951 
C312     C      0.165380000000     0.666760000000     0.029590000000    -0.0931419  
C313     C      0.239540000000     0.788140000000     0.037370000000    -0.0132458  
C314     C      0.294270000000     0.842700000000     0.049670000000    -0.103395   
C315     C      0.241980000000     0.764700000000     0.058700000000    -0.0304376  
C316     C      0.327210000000     0.870640000000     0.041750000000     0.0777099  
C317     C      0.317630000000     0.853620000000     0.993970000000     0.190616   
C318     C      0.213050000000     0.731910000000     0.061920000000    -0.0360622  
C319     C      0.154680000000     0.686340000000     0.042110000000     0.0514186  
C320     C      0.272700000000     0.819800000000     0.029290000000     0.0697545  
C321     C      0.813530000000     0.452300000000     0.053220000000    -0.129368   
C322     C      0.646060000000     0.500000000000     0.965440000000     0.0713164  
C323     C      0.615530000000     0.441030000000     0.976220000000     0.0704574  
C324     C      0.678760000000     0.502160000000     0.977020000000    -0.0948878  
C325     C      0.747770000000     0.498660000000     0.992400000000    -0.0287316  
C326     C      0.780040000000     0.501900000000     0.006430000000    -0.0365183  
C327     C      0.714160000000     0.476020000000     0.004040000000    -0.00876304 
C328     C      0.647980000000     0.442280000000     0.988130000000    -0.0917498  
C329     C      0.779610000000     0.482480000000     0.032420000000    -0.0066238  
C330     C      0.847040000000     0.512360000000     0.044280000000    -0.0970175  
C331     C      0.746060000000     0.460220000000     0.044370000000    -0.0336293  
C332     C      0.879310000000     0.510690000000     0.048230000000     0.084683   
C333     C      0.846200000000     0.451440000000     0.056670000000     0.195979   
C334     C      0.713700000000     0.457040000000     0.030350000000    -0.0328999  
C335     C      0.679930000000     0.473290000000     0.989340000000     0.0518942  
C336     C      0.813610000000     0.482650000000     0.044660000000     0.0700694  
C337     C      0.171080000000     0.545900000000     0.923650000000    -0.125951   
C338     C      0.332590000000     0.490640000000     0.000620000000     0.0741815  
C339     C      0.373670000000     0.549040000000     0.000270000000     0.0750494  
C340     C      0.303230000000     0.496520000000     0.996760000000    -0.0923007  
C341     C      0.245220000000     0.516320000000     0.996660000000    -0.0362853  
C342     C      0.212930000000     0.513380000000     0.983070000000    -0.030713   
C343     C      0.277830000000     0.534770000000     0.982560000000    -0.00459892 
C344     C      0.344630000000     0.555960000000     0.995280000000    -0.089304   
C345     C      0.212520000000     0.528740000000     0.955030000000    -0.0117963  
C346     C      0.149100000000     0.487700000000     0.939900000000    -0.100537   
C347     C      0.245590000000     0.549610000000     0.941940000000    -0.0304624  
C348     C      0.114730000000     0.480620000000     0.928090000000     0.0790209  
C349     C      0.136090000000     0.538000000000     0.912040000000     0.188916   
C350     C      0.278060000000     0.552590000000     0.955630000000    -0.035045   
C351     C      0.309040000000     0.529410000000     0.992720000000     0.0506319  
C352     C      0.177280000000     0.520870000000     0.939170000000     0.0723936  
C353     C      0.656800000000     0.655140000000     0.547850000000    -0.130932   
C354     C      0.814120000000     0.868470000000     0.539090000000     0.0693441  
C355     C      0.835950000000     0.831500000000     0.531780000000     0.0720592  
C356     C      0.780390000000     0.840970000000     0.546530000000    -0.0903824  
C357     C      0.738850000000     0.751390000000     0.572670000000    -0.0355604  
C358     C      0.707710000000     0.719980000000     0.574230000000    -0.0308727  
C359     C      0.739410000000     0.777920000000     0.553620000000    -0.00443167 
C360     C      0.803230000000     0.803800000000     0.539690000000    -0.0922884  
C361     C      0.676340000000     0.714190000000     0.556650000000    -0.0114411  
C362     C      0.610170000000     0.669270000000     0.552560000000    -0.100001   
C363     C      0.675780000000     0.741490000000     0.539500000000    -0.0309959  
C364     C      0.583950000000     0.636460000000     0.546380000000     0.0837033  
C365     C      0.630300000000     0.622960000000     0.541220000000     0.193254   
C366     C      0.707090000000     0.773140000000     0.538010000000    -0.0354167  
C367     C      0.774760000000     0.808150000000     0.546930000000     0.0489036  
C368     C      0.647150000000     0.679070000000     0.552800000000     0.0701052  
C369     C      0.190010000000     0.121490000000     0.419450000000    -0.12735    
C370     C      0.339390000000     0.332250000000     0.441410000000     0.0719146  
C371     C      0.385120000000     0.330100000000     0.418130000000     0.0699057  
C372     C      0.315280000000     0.298850000000     0.436960000000    -0.0940851  
C373     C      0.298120000000     0.223480000000     0.449820000000    -0.0358744  
C374     C      0.268240000000     0.191400000000     0.453290000000    -0.0319188  
C375     C      0.301910000000     0.243540000000     0.423680000000    -0.00551686 
C376     C      0.361470000000     0.296100000000     0.413550000000    -0.0899182  
C377     C      0.241540000000     0.178680000000     0.430660000000    -0.0116732  
C378     C      0.187100000000     0.147690000000     0.459820000000    -0.101117   
C379     C      0.246830000000     0.197680000000     0.403690000000    -0.0314836  
C380     C      0.152860000000     0.120670000000     0.464960000000     0.0786275  
C381     C      0.155630000000     0.094000000000     0.425460000000     0.186784   
C382     C      0.276710000000     0.230050000000     0.400300000000    -0.0357578  
C383     C      0.326460000000     0.280130000000     0.423730000000     0.0492212  
C384     C      0.206050000000     0.148540000000     0.436790000000     0.0680014  
C385     C      0.792750000000     0.978020000000     0.418380000000    -0.129503   
C386     C      0.554940000000     0.906460000000     0.423140000000     0.0681187  
C387     C      0.578490000000     0.958120000000     0.394130000000     0.0701749  
C388     C      0.588770000000     0.907640000000     0.424970000000    -0.0910546  
C389     C      0.663280000000     0.913350000000     0.422970000000    -0.0351944  
C390     C      0.698750000000     0.918900000000     0.429660000000    -0.0305534  
C391     C      0.656210000000     0.940550000000     0.417350000000    -0.00336502 
C392     C      0.612060000000     0.959490000000     0.394580000000    -0.0927325  
C393     C      0.727900000000     0.951710000000     0.430270000000    -0.0117447  
C394     C      0.774550000000     0.945470000000     0.464020000000    -0.101319   
C395     C      0.721100000000     0.978850000000     0.424410000000    -0.0282303  
C396     C      0.810490000000     0.953100000000     0.471070000000     0.0862112  
C397     C      0.828530000000     0.984770000000     0.425650000000     0.192008   
C398     C      0.685730000000     0.973370000000     0.418410000000    -0.0349063  
C399     C      0.618420000000     0.935270000000     0.411680000000     0.0462397  
C400     C      0.765430000000     0.957960000000     0.437450000000     0.0722888  
C401     C      0.199080000000     0.037220000000     0.548550000000    -0.128818   
C402     C      0.422730000000     0.064070000000     0.538500000000     0.0702645  
C403     C      0.389830000000     0.013310000000     0.567380000000     0.0715994  
C404     C      0.394830000000     0.072040000000     0.539310000000    -0.0905482  
C405     C      0.317180000000     0.057840000000     0.520390000000    -0.0346517  
C406     C      0.281640000000     0.052270000000     0.514520000000    -0.030108   
C407     C      0.329230000000     0.051720000000     0.548720000000    -0.00366093 
C408     C      0.362140000000     0.020810000000     0.569300000000    -0.0914012  
C409     C      0.257340000000     0.040540000000     0.536840000000    -0.0101157  
C410     C      0.199570000000     0.013320000000     0.505790000000    -0.0967136  
C411     C      0.270210000000     0.036680000000     0.565460000000    -0.0299261  
C412     C      0.162660000000     0.002940000000     0.500440000000     0.0828007  
C413     C      0.162050000000     0.026740000000     0.542660000000     0.191783   
C414     C      0.305710000000     0.042200000000     0.571320000000    -0.0349887  
C415     C      0.363190000000     0.049300000000     0.553580000000     0.0486763  
C416     C      0.218270000000     0.030490000000     0.530200000000     0.0700893  
C417     C      0.055690000000     0.850930000000     0.436640000000    -0.127439   
C418     C      0.019910000000     0.643780000000     0.427820000000     0.071935   
C419     C      0.008890000000     0.641720000000     0.477040000000     0.0792133  
C420     C      0.025110000000     0.676630000000     0.422990000000    -0.0889402  
C421     C      0.049980000000     0.752730000000     0.425270000000    -0.0362605  
C422     C      0.051040000000     0.784070000000     0.421910000000    -0.0300236  
C423     C      0.022540000000     0.725140000000     0.440750000000     0.00081655 
C424     C      0.013820000000     0.674250000000     0.472970000000    -0.0880041  
C425     C      0.024280000000     0.788090000000     0.433530000000    -0.00885956 
C426     C      0.991610000000     0.821280000000     0.424930000000    -0.106462   
C427     C      0.996850000000     0.760330000000     0.448770000000    -0.0328579  
C428     C      0.989750000000     0.849930000000     0.428660000000     0.0772265  
C429     C      0.053180000000     0.879850000000     0.439940000000     0.187127   
C430     C      0.995970000000     0.729380000000     0.452290000000    -0.0399635  
C431     C      0.021250000000     0.691920000000     0.445600000000     0.0494146  
C432     C      0.024340000000     0.820810000000     0.430620000000     0.0718536  
C433     C      0.913060000000     0.108080000000     0.527490000000    -0.126969   
C434     C      0.959080000000     0.317190000000     0.482140000000     0.0699813  
C435     C      0.943040000000     0.314110000000     0.530040000000     0.0683208  
C436     C      0.954020000000     0.284630000000     0.486610000000    -0.0935805  
C437     C      0.970870000000     0.229500000000     0.509430000000    -0.0362045  
C438     C      0.970630000000     0.198840000000     0.514110000000    -0.0313058  
C439     C      0.943180000000     0.233420000000     0.519330000000    -0.00503067 
C440     C      0.937810000000     0.281290000000     0.535290000000    -0.0912235  
C441     C      0.942780000000     0.171070000000     0.528990000000    -0.0118677  
C442     C      0.976700000000     0.139210000000     0.540600000000    -0.105716   
C443     C      0.914840000000     0.174730000000     0.538900000000    -0.0310104  
C444     C      0.979720000000     0.110830000000     0.538330000000     0.076282   
C445     C      0.916730000000     0.079430000000     0.525770000000     0.187322   
C446     C      0.915190000000     0.205760000000     0.534300000000    -0.0356592  
C447     C      0.944150000000     0.266490000000     0.513620000000     0.0482706  
C448     C      0.943660000000     0.138760000000     0.533440000000     0.0691872  
C449     C      0.937180000000     0.930400000000     0.814100000000    -0.128813   
C450     C      0.921970000000     0.967400000000     0.621880000000     0.0712913  
C451     C      0.967790000000     0.952160000000     0.635690000000     0.0713777  
C452     C      0.914850000000     0.965070000000     0.650980000000    -0.0920406  
C453     C      0.938990000000     0.983900000000     0.716510000000    -0.0365247  
C454     C      0.937950000000     0.983320000000     0.746510000000    -0.0309531  
C455     C      0.928640000000     0.954270000000     0.703630000000    -0.0050208  
C456     C      0.960710000000     0.948760000000     0.664850000000    -0.0935889  
C457     C      0.925890000000     0.952930000000     0.764200000000    -0.0119466  
C458     C      0.924650000000     0.976370000000     0.810020000000    -0.102576   
C459     C      0.913760000000     0.923040000000     0.750790000000    -0.030568   
C460     C      0.931150000000     0.978160000000     0.839980000000     0.0769509  
C461     C      0.942970000000     0.932250000000     0.844190000000     0.185371   
C462     C      0.915610000000     0.923790000000     0.720880000000    -0.0359543  
C463     C      0.934360000000     0.955640000000     0.672690000000     0.0500846  
C464     C      0.928450000000     0.952800000000     0.796510000000     0.0680531  
C465     C      0.054080000000     0.984870000000     0.163740000000    -0.129596   
C466     C      0.002960000000     0.006470000000     0.337130000000     0.0769907  
C467     C      0.048860000000     0.991110000000     0.349240000000     0.0783888  
C468     C      0.008710000000     0.009760000000     0.307760000000    -0.0876549  
C469     C      0.007750000000     0.994900000000     0.247130000000    -0.0311279  
C470     C      0.011190000000     0.996960000000     0.217410000000    -0.0270589  
C471     C      0.038090000000     0.003360000000     0.266850000000    -0.00321    
C472     C      0.054700000000     0.993340000000     0.319770000000    -0.0867407  
C473     C      0.044800000000     0.006660000000     0.206640000000    -0.0124556  
C474     C      0.040290000000     0.030250000000     0.156170000000    -0.101822   
C475     C      0.075070000000     0.014240000000     0.226020000000    -0.0297965  
C476     C      0.038260000000     0.028290000000     0.126300000000     0.0853666  
C477     C      0.051130000000     0.982900000000     0.133680000000     0.191162   
C478     C      0.071850000000     0.012940000000     0.255880000000    -0.0341655  
C479     C      0.034110000000     0.002330000000     0.298510000000     0.050757   
C480     C      0.047430000000     0.007890000000     0.175130000000     0.0731091  
C481     C      0.620640000000     0.675430000000     0.029220000000    -0.129934   
C482     C      0.832640000000     0.833210000000     0.958420000000     0.0710896  
C483     C      0.808410000000     0.865320000000     0.973330000000     0.0725719  
C484     C      0.800170000000     0.803660000000     0.964070000000    -0.0900559  
C485     C      0.725350000000     0.744140000000     0.972580000000    -0.0377937  
C486     C      0.697380000000     0.714340000000     0.984490000000    -0.0296397  
C487     C      0.739280000000     0.773940000000     0.986320000000    -0.00289524 
C488     C      0.775480000000     0.836540000000     0.978540000000    -0.0916723  
C489     C      0.682380000000     0.713710000000     0.010170000000    -0.0150224  
C490     C      0.662990000000     0.654990000000     0.029070000000    -0.106316   
C491     C      0.694940000000     0.743560000000     0.023310000000    -0.0304117  
C492     C      0.635340000000     0.622710000000     0.035670000000     0.0780493  
C493     C      0.593150000000     0.642400000000     0.035910000000     0.186535   
C494     C      0.723360000000     0.773370000000     0.011650000000    -0.0376632  
C495     C      0.771610000000     0.805020000000     0.975490000000     0.0484267  
C496     C      0.655110000000     0.681280000000     0.023600000000     0.0693049  
C497     C      0.206420000000     0.129630000000     0.992120000000    -0.13075    
C498     C      0.342060000000     0.343620000000     0.932660000000     0.0736359  
C499     C      0.386230000000     0.325740000000     0.936980000000     0.0723281  
C500     C      0.314420000000     0.310650000000     0.936240000000    -0.0940215  
C501     C      0.257880000000     0.238450000000     0.940260000000    -0.0361046  
C502     C      0.229630000000     0.209310000000     0.952760000000    -0.031131   
C503     C      0.293870000000     0.250260000000     0.951560000000    -0.00464279 
C504     C      0.359030000000     0.292150000000     0.940930000000    -0.0912284  
C505     C      0.236720000000     0.190840000000     0.976440000000    -0.0125098  
C506     C      0.175880000000     0.160810000000     0.997720000000    -0.102267   
C507     C      0.272750000000     0.201370000000     0.986790000000    -0.0299391  
C508     C      0.145220000000     0.130810000000     0.005940000000     0.0800568  
C509     C      0.175090000000     0.099900000000     0.999820000000     0.194704   
C510     C      0.301070000000     0.230960000000     0.974620000000    -0.0353976  
C511     C      0.322720000000     0.284440000000     0.941890000000     0.0497341  
C512     C      0.206300000000     0.160180000000     0.989540000000     0.0707409  
C513     C      0.860770000000     0.001610000000     0.070480000000    -0.132776   
C514     C      0.657540000000     0.005110000000     0.038770000000     0.0685166  
C515     C      0.662520000000     0.998070000000     0.990160000000     0.0704251  
C516     C      0.693170000000     0.011520000000     0.045870000000    -0.0912478  
C517     C      0.777300000000     0.044100000000     0.045830000000    -0.0367637  
C518     C      0.812360000000     0.048550000000     0.052650000000    -0.03195    
C519     C      0.750790000000     0.015690000000     0.032140000000    -0.00540763 
C520     C      0.697910000000     0.003660000000     0.996690000000    -0.0915934  
C521     C      0.821020000000     0.024210000000     0.046540000000    -0.0132433  
C522     C      0.888560000000     0.055040000000     0.042580000000    -0.106812   
C523     C      0.794450000000     0.995820000000     0.032980000000    -0.0335589  
C524     C      0.921080000000     0.053750000000     0.044630000000     0.0700609  
C525     C      0.893630000000     0.001220000000     0.072470000000     0.188348   
C526     C      0.759800000000     0.991750000000     0.025630000000    -0.0360579  
C527     C      0.713650000000     0.010630000000     0.024750000000     0.0476078  
C528     C      0.857470000000     0.027680000000     0.054030000000     0.0654021  
C529     C      0.287670000000     0.961610000000     0.912060000000    -0.128357   
C530     C      0.054600000000     0.892750000000     0.929890000000     0.0753746  
C531     C      0.073630000000     0.936690000000     0.892300000000     0.083768   
C532     C      0.085520000000     0.889600000000     0.927790000000    -0.0902541  
C533     C      0.158810000000     0.892860000000     0.923960000000    -0.0340533  
C534     C      0.195050000000     0.900520000000     0.930560000000    -0.0293687  
C535     C      0.150220000000     0.918200000000     0.912480000000    -0.0027656  
C536     C      0.103410000000     0.932890000000     0.888370000000    -0.0901457  
C537     C      0.223330000000     0.933500000000     0.925380000000    -0.00987181 
C538     C      0.273410000000     0.934890000000     0.960210000000    -0.0986386  
C539     C      0.214860000000     0.958570000000     0.913560000000    -0.0284623  
C540     C      0.310380000000     0.946520000000     0.967040000000     0.0925113  
C541     C      0.324460000000     0.972690000000     0.919270000000     0.197104   
C542     C      0.178960000000     0.951150000000     0.907480000000    -0.0327768  
C543     C      0.111980000000     0.911970000000     0.908440000000     0.0517557  
C544     C      0.261800000000     0.942530000000     0.932480000000     0.0751536  
C545     C      0.903740000000     0.610670000000     0.989190000000    -0.130902   
C546     C      0.937410000000     0.812310000000     0.979840000000     0.0726489  
C547     C      0.942610000000     0.812810000000     0.031010000000     0.0706096  
C548     C      0.927730000000     0.778520000000     0.982170000000    -0.0910666  
C549     C      0.933910000000     0.713740000000     0.035220000000    -0.0357462  
C550     C      0.933760000000     0.683390000000     0.034570000000    -0.0315986  
C551     C      0.918130000000     0.725660000000     0.011900000000    -0.00503861 
C552     C      0.931780000000     0.778520000000     0.034150000000    -0.0915375  
C553     C      0.919180000000     0.664780000000     0.010070000000    -0.0126463  
C554     C      0.959410000000     0.638580000000     0.018010000000    -0.102822   
C555     C      0.900490000000     0.675110000000     0.988000000000    -0.0302495  
C556     C      0.967940000000     0.614190000000     0.012980000000     0.0809304  
C557     C      0.913570000000     0.586930000000     0.983660000000     0.190196   
C558     C      0.899350000000     0.704790000000     0.989220000000    -0.0351346  
C559     C      0.924870000000     0.760960000000     0.009520000000     0.0482467  
C560     C      0.926970000000     0.637210000000     0.006170000000     0.0682875  
C561     C      0.043010000000     0.339160000000     0.940540000000    -0.127635   
C562     C      0.053680000000     0.150940000000     0.990380000000     0.0736597  
C563     C      0.029740000000     0.145970000000     0.941600000000     0.0721626  
C564     C      0.060150000000     0.183800000000     0.988900000000    -0.0945677  
C565     C      0.066950000000     0.256040000000     0.942100000000    -0.0359201  
C566     C      0.066960000000     0.286390000000     0.942920000000    -0.0306169  
C567     C      0.050700000000     0.230000000000     0.963830000000    -0.00555724 
C568     C      0.036030000000     0.179030000000     0.939340000000    -0.0936935  
C569     C      0.050220000000     0.290850000000     0.965250000000    -0.0118425  
C570     C      0.051240000000     0.334880000000     0.992460000000    -0.10282    
C571     C      0.033650000000     0.264420000000     0.986700000000    -0.0295753  
C572     C      0.045320000000     0.361950000000     0.993260000000     0.0799142  
C573     C      0.038040000000     0.366900000000     0.941820000000     0.194669   
C574     C      0.034100000000     0.234450000000     0.986080000000    -0.0351423  
C575     C      0.050110000000     0.197700000000     0.963570000000     0.0506689  
C576     C      0.048670000000     0.322300000000     0.966000000000     0.0711863  
H1       H      0.014290000000     0.985110000000     0.918690000000     0.203125   
H2       H      0.959070000000     0.035670000000     0.986070000000     0.204677   
H3       H      0.925990000000     0.904250000000     0.008870000000     0.197742   
H4       H      0.065180000000     0.000520000000     0.031780000000     0.203638   
H5       H      0.914930000000     0.012800000000     0.915680000000     0.140496   
H6       H      0.882240000000     0.004220000000     0.998720000000     0.202522   
H7       H      0.873330000000     0.917990000000     0.042990000000     0.144316   
H8       H      0.938490000000     0.902810000000     0.076290000000     0.200516   
H9       H      0.048750000000     0.916590000000     0.033070000000     0.146539   
H10      H      0.109060000000     0.981550000000     0.013420000000     0.214532   
H11      H      0.094130000000     0.043050000000     0.922650000000     0.129489   
H12      H      0.042170000000     0.056340000000     0.894880000000     0.188802   
H13      H      0.970650000000     0.892220000000     0.087650000000     0.216084   
H14      H      0.103440000000     0.961140000000     0.984280000000     0.211558   
H15      H      0.012190000000     0.070060000000     0.885300000000     0.204859   
H16      H      0.881170000000     0.995120000000     0.964820000000     0.198115   
H17      H      0.899220000000     0.931250000000     0.467490000000     0.197881   
H18      H      0.026060000000     0.036630000000     0.430390000000     0.197521   
H19      H      0.998900000000     0.021510000000     0.544450000000     0.19297    
H20      H      0.025610000000     0.929840000000     0.503260000000     0.20613    
H21      H      0.980130000000     0.050780000000     0.402070000000     0.132448   
H22      H      0.001230000000     0.094640000000     0.448640000000     0.21274    
H23      H      0.074740000000     0.077000000000     0.534620000000     0.14061    
H24      H      0.060640000000     0.025850000000     0.582590000000     0.202757   
H25      H      0.000000000000     0.908970000000     0.568710000000     0.143275   
H26      H      0.974640000000     0.861360000000     0.515040000000     0.202382   
H27      H      0.910110000000     0.880660000000     0.434470000000     0.134399   
H28      H      0.893310000000     0.925090000000     0.405620000000     0.191497   
H29      H      0.064630000000     0.992320000000     0.596650000000     0.217911   
H30      H      0.941380000000     0.857520000000     0.534110000000     0.202872   
H31      H      0.907900000000     0.956220000000     0.379120000000     0.21206    
H32      H      0.044680000000     0.108080000000     0.442790000000     0.204492   
H33      H      0.964360000000     0.451120000000     0.047400000000     0.199463   
H34      H      0.922670000000     0.449800000000     0.932050000000     0.193833   
H35      H      0.024610000000     0.568950000000     0.973080000000     0.201292   
H36      H      0.061910000000     0.471760000000     0.969830000000     0.199603   
H37      H      0.860370000000     0.436380000000     0.967880000000     0.13344    
H38      H      0.884760000000     0.488270000000     0.927210000000     0.199204   
H39      H      0.018460000000     0.577270000000     0.910620000000     0.147432   
H40      H      0.091160000000     0.599420000000     0.929440000000     0.208544   
H41      H      0.127190000000     0.538730000000     0.999450000000     0.141232   
H42      H      0.101390000000     0.472360000000     0.022200000000     0.194264   
H43      H      0.975010000000     0.382700000000     0.038280000000     0.144611   
H44      H      0.906990000000     0.391390000000     0.049880000000     0.210688   
H45      H      0.127810000000     0.600330000000     0.947860000000     0.215955   
H46      H      0.087560000000     0.455510000000     0.055540000000     0.206394   
H47      H      0.900550000000     0.366340000000     0.024120000000     0.207725   
H48      H      0.903940000000     0.524090000000     0.905900000000     0.229892   
H49      H      0.915640000000     0.460360000000     0.521140000000     0.194248   
H50      H      0.949160000000     0.461530000000     0.410720000000     0.195472   
H51      H      0.046070000000     0.560740000000     0.476830000000     0.19874    
H52      H      0.024340000000     0.433320000000     0.507470000000     0.203136   
H53      H      0.874770000000     0.449070000000     0.404640000000     0.136604   
H54      H      0.951610000000     0.543460000000     0.393080000000     0.21159    
H55      H      0.078720000000     0.568660000000     0.423790000000     0.13078    
H56      H      0.131540000000     0.558910000000     0.484410000000     0.192756   
H57      H      0.074730000000     0.485310000000     0.555840000000     0.14175    
H58      H      0.014980000000     0.413060000000     0.564110000000     0.202708   
H59      H      0.888610000000     0.387750000000     0.531090000000     0.130047   
H60      H      0.830150000000     0.415440000000     0.456350000000     0.198676   
H61      H      0.136600000000     0.536560000000     0.514080000000     0.200786   
H62      H      0.996290000000     0.423810000000     0.587790000000     0.205522   
H63      H      0.843300000000     0.404130000000     0.489110000000     0.189344   
H64      H      0.966080000000     0.526500000000     0.371430000000     0.202227   
H65      H      0.476530000000     0.940680000000     0.922430000000     0.214233   
H66      H      0.454230000000     0.931590000000     0.037540000000     0.198725   
H67      H      0.577960000000     0.036590000000     0.994470000000     0.197045   
H68      H      0.449470000000     0.033200000000     0.960410000000     0.202976   
H69      H      0.437680000000     0.866670000000     0.028760000000     0.137305   
H70      H      0.537820000000     0.923220000000     0.052590000000     0.210113   
H71      H      0.563870000000     0.041950000000     0.062320000000     0.137064   
H72      H      0.587560000000     0.091140000000     0.019010000000     0.189261   
H73      H      0.517940000000     0.090810000000     0.924110000000     0.141909   
H74      H      0.449490000000     0.050740000000     0.903830000000     0.205834   
H75      H      0.394500000000     0.952860000000     0.884930000000     0.178646   
H76      H      0.401620000000     0.865140000000     0.940940000000     0.236083   
H77      H      0.571110000000     0.117470000000     0.008180000000     0.205286   
H78      H      0.447620000000     0.032160000000     0.874490000000     0.227279   
H79      H      0.409950000000     0.843230000000     0.969410000000     0.21862    
H80      H      0.521690000000     0.931040000000     0.080230000000     0.203664   
H81      H      0.403950000000     0.950710000000     0.439550000000     0.196535   
H82      H      0.466350000000     0.970660000000     0.549730000000     0.203376   
H83      H      0.519130000000     0.924700000000     0.476030000000     0.203711   
H84      H      0.541720000000     0.053090000000     0.454260000000     0.194998   
H85      H      0.389960000000     0.903840000000     0.547170000000     0.131763   
H86      H      0.447910000000     0.899510000000     0.574680000000     0.191771   
H87      H      0.571100000000     0.953140000000     0.541460000000     0.147381   
H88      H      0.586480000000     0.955200000000     0.486080000000     0.206417   
H89      H      0.583850000000     0.040220000000     0.409860000000     0.131077   
H90      H      0.490520000000     0.061380000000     0.380070000000     0.214403   
H91      H      0.395710000000     0.998190000000     0.416440000000     0.145003   
H92      H      0.365100000000     0.975380000000     0.464780000000     0.209224   
H93      H      0.610700000000     0.978820000000     0.457930000000     0.220265   
H94      H      0.526890000000     0.057280000000     0.392330000000     0.18893    
H95      H      0.361380000000     0.979730000000     0.499210000000     0.216877   
H96      H      0.482260000000     0.890910000000     0.580530000000     0.215595   
H97      H      0.423400000000     0.466370000000     0.026360000000     0.195707   
H98      H      0.450280000000     0.462310000000     0.915320000000     0.196632   
H99      H      0.548930000000     0.567130000000     0.975550000000     0.199665   
H100     H      0.533430000000     0.442060000000     0.010090000000     0.204533   
H101     H      0.369730000000     0.447750000000     0.914820000000     0.13863    
H102     H      0.448620000000     0.542340000000     0.895070000000     0.210465   
H103     H      0.577950000000     0.572890000000     0.920720000000     0.131644   
H104     H      0.635270000000     0.568870000000     0.980470000000     0.192944   
H105     H      0.587320000000     0.498580000000     0.054650000000     0.140439   
H106     H      0.522060000000     0.418980000000     0.070020000000     0.200372   
H107     H      0.399790000000     0.394850000000     0.041610000000     0.128749   
H108     H      0.334700000000     0.413680000000     0.967810000000     0.198015   
H109     H      0.643460000000     0.547450000000     0.009390000000     0.200295   
H110     H      0.521990000000     0.448590000000     0.087590000000     0.202751   
H111     H      0.352090000000     0.405190000000     0.999760000000     0.190038   
H112     H      0.461360000000     0.523470000000     0.873930000000     0.203115   
H113     H      0.449510000000     0.446730000000     0.548310000000     0.202717   
H114     H      0.415490000000     0.451540000000     0.431680000000     0.19867    
H115     H      0.517210000000     0.567360000000     0.478610000000     0.196062   
H116     H      0.550990000000     0.467240000000     0.474970000000     0.199379   
H117     H      0.335780000000     0.408780000000     0.483320000000     0.149773   
H118     H      0.379600000000     0.492560000000     0.429330000000     0.202144   
H119     H      0.516920000000     0.578530000000     0.415980000000     0.132639   
H120     H      0.590200000000     0.596860000000     0.437150000000     0.194067   
H121     H      0.607750000000     0.519330000000     0.509480000000     0.152835   
H122     H      0.581650000000     0.451880000000     0.525630000000     0.198072   
H123     H      0.457750000000     0.378540000000     0.541870000000     0.14       
H124     H      0.396380000000     0.380600000000     0.541460000000     0.202599   
H125     H      0.623730000000     0.595160000000     0.458610000000     0.213465   
H126     H      0.576800000000     0.460050000000     0.558410000000     0.210123   
H127     H      0.359400000000     0.366470000000     0.518790000000     0.20925    
H128     H      0.400210000000     0.527360000000     0.407020000000     0.205537   
H129     H      0.535790000000     0.527650000000     0.845420000000     0.0276905  
H130     H      0.514550000000     0.433590000000     0.619090000000     0.0273522  
H131     H      0.584060000000     0.521930000000     0.764570000000     0.0411026  
H132     H      0.488340000000     0.425490000000     0.713420000000     0.0406053  
H133     H      0.523750000000     0.429140000000     0.671220000000     0.058202   
H134     H      0.489440000000     0.423540000000     0.766190000000     0.0401242  
H135     H      0.538530000000     0.528400000000     0.673570000000     0.0825411  
H136     H      0.544750000000     0.525800000000     0.795830000000     0.0551955  
H137     H      0.520870000000     0.422720000000     0.814000000000     0.0543401  
H138     H      0.582510000000     0.524040000000     0.711830000000     0.0427197  
H139     H      0.511340000000     0.425090000000     0.864100000000     0.0264753  
H140     H      0.448250000000     0.532140000000     0.346390000000     0.0251734  
H141     H      0.459760000000     0.449290000000     0.121990000000     0.0245931  
H142     H      0.481520000000     0.547620000000     0.252070000000     0.0412924  
H143     H      0.404440000000     0.444160000000     0.201630000000     0.0385827  
H144     H      0.450540000000     0.449950000000     0.171410000000     0.0568063  
H145     H      0.403370000000     0.442070000000     0.254120000000     0.0398145  
H146     H      0.449600000000     0.543490000000     0.151560000000     0.0820724  
H147     H      0.441040000000     0.536060000000     0.293770000000     0.0543534  
H148     H      0.451740000000     0.447510000000     0.293120000000     0.0564537  
H149     H      0.483110000000     0.549680000000     0.199440000000     0.0427858  
H150     H      0.458970000000     0.444170000000     0.345410000000     0.0323868  
H151     H      0.428970000000     0.599710000000     0.451360000000     0.025161   
H152     H      0.391770000000     0.812550000000     0.475680000000     0.0232828  
H153     H      0.372660000000     0.657790000000     0.468190000000     0.0372077  
H154     H      0.429120000000     0.718970000000     0.556230000000     0.0403531  
H155     H      0.368960000000     0.752960000000     0.484050000000     0.054714   
H156     H      0.429290000000     0.667360000000     0.552790000000     0.040191   
H157     H      0.466200000000     0.771340000000     0.536840000000     0.0813151  
H158     H      0.410170000000     0.639830000000     0.457920000000     0.0529949  
H159     H      0.410910000000     0.613590000000     0.550580000000     0.0539124  
H160     H      0.377780000000     0.712180000000     0.469830000000     0.0366162  
H161     H      0.434530000000     0.577370000000     0.543310000000     0.031128   
H162     H      0.560870000000     0.139530000000     0.493720000000     0.02418    
H163     H      0.510900000000     0.351840000000     0.516760000000     0.0246282  
H164     H      0.550320000000     0.227380000000     0.506000000000     0.0381025  
H165     H      0.506020000000     0.275540000000     0.420440000000     0.0404436  
H166     H      0.517460000000     0.303530000000     0.513480000000     0.056158   
H167     H      0.508750000000     0.225070000000     0.416550000000     0.0394107  
H168     H      0.535280000000     0.331330000000     0.422380000000     0.0804193  
H169     H      0.571850000000     0.196430000000     0.490430000000     0.0519437  
H170     H      0.479180000000     0.169560000000     0.429220000000     0.0547059  
H171     H      0.552870000000     0.280570000000     0.508400000000     0.0363528  
H172     H      0.471500000000     0.113850000000     0.430980000000     0.0297281  
H173     H      0.540910000000     0.954300000000     0.616990000000     0.0262573  
H174     H      0.578000000000     0.010510000000     0.858130000000     0.0274619  
H175     H      0.505880000000     0.953820000000     0.703260000000     0.0415651  
H176     H      0.588900000000     0.053350000000     0.756890000000     0.0394663  
H177     H      0.591610000000     0.014970000000     0.807900000000     0.0579143  
H178     H      0.594720000000     0.055240000000     0.704530000000     0.0401627  
H179     H      0.481490000000     0.988640000000     0.781050000000     0.0846056  
H180     H      0.548520000000     0.956890000000     0.668910000000     0.0552825  
H181     H      0.556060000000     0.054690000000     0.657960000000     0.0546573  
H182     H      0.500180000000     0.952110000000     0.755020000000     0.0453367  
H183     H      0.548470000000     0.051530000000     0.605620000000     0.0273837  
H184     H      0.413400000000     0.982770000000     0.100590000000     0.0329066  
H185     H      0.446710000000     0.914500000000     0.352960000000     0.0274258  
H186     H      0.445580000000     0.009940000000     0.199600000000     0.0425093  
H187     H      0.417040000000     0.901770000000     0.256420000000     0.0380591  
H188     H      0.445540000000     0.914530000000     0.301150000000     0.0564261  
H189     H      0.425580000000     0.907970000000     0.204570000000     0.040019   
H190     H      0.403790000000     0.984160000000     0.290250000000     0.0816582  
H191     H      0.400570000000     0.975550000000     0.151600000000     0.0577945  
H192     H      0.488030000000     0.953280000000     0.174630000000     0.054264   
H193     H      0.439770000000     0.005070000000     0.251680000000     0.0413153  
H194     H      0.501100000000     0.961600000000     0.123950000000     0.0214495  
H195     H      0.525270000000     0.635470000000     0.908410000000     0.0284161  
H196     H      0.579480000000     0.907510000000     0.948560000000     0.0235869  
H197     H      0.503980000000     0.726110000000     0.893270000000     0.0410956  
H198     H      0.562570000000     0.802110000000     0.972460000000     0.0393986  
H199     H      0.588330000000     0.859490000000     0.944450000000     0.0562469  
H200     H      0.558130000000     0.746610000000     0.978320000000     0.0427885  
H201     H      0.477990000000     0.804990000000     0.910330000000     0.0824388  
H202     H      0.537450000000     0.693360000000     0.899140000000     0.0540445  
H203     H      0.506120000000     0.689200000000     0.985210000000     0.060846   
H204     H      0.508960000000     0.781860000000     0.887220000000     0.0421394  
H205     H      0.493560000000     0.631660000000     0.993620000000     0.0484965  
H206     H      0.453890000000     0.334840000000     0.055800000000     0.0257319  
H207     H      0.510770000000     0.123480000000     0.028420000000     0.0195613  
H208     H      0.405680000000     0.218470000000     0.988370000000     0.0398038  
H209     H      0.476560000000     0.191590000000     0.068870000000     0.0388868  
H210     H      0.502540000000     0.170130000000     0.035810000000     0.0565708  
H211     H      0.478640000000     0.246180000000     0.064600000000     0.0392548  
H212     H      0.387080000000     0.108380000000     0.024060000000     0.0829057  
H213     H      0.441660000000     0.276840000000     0.065000000000     0.0537973  
H214     H      0.457560000000     0.276390000000     0.975240000000     0.0535541  
H215     H      0.403660000000     0.163920000000     0.992610000000     0.0445005  
H216     H      0.470280000000     0.333970000000     0.966800000000     0.0275843  
H217     H      0.908590000000     0.327610000000     0.433350000000     0.0273658  
H218     H      0.615390000000     0.128120000000     0.506440000000     0.0229539  
H219     H      0.793610000000     0.220130000000     0.422370000000     0.0407729  
H220     H      0.731140000000     0.217710000000     0.507610000000     0.0370856  
H221     H      0.670340000000     0.180030000000     0.496440000000     0.0543881  
H222     H      0.780250000000     0.270620000000     0.488390000000     0.0392117  
H223     H      0.722000000000     0.124030000000     0.478650000000     0.0820493  
H224     H      0.861250000000     0.269630000000     0.443420000000     0.0554635  
H225     H      0.781720000000     0.303150000000     0.435270000000     0.0528658  
H226     H      0.743230000000     0.167080000000     0.440630000000     0.0415698  
H227     H      0.828960000000     0.360160000000     0.425120000000     0.0175929  
H228     H      0.058710000000     0.628760000000     0.531710000000     0.0296039  
H229     H      0.347680000000     0.823450000000     0.450320000000     0.0241345  
H230     H      0.176000000000     0.736060000000     0.542680000000     0.0425097  
H231     H      0.232970000000     0.732650000000     0.456320000000     0.0371186  
H232     H      0.293660000000     0.771740000000     0.462910000000     0.054422   
H233     H      0.185320000000     0.680920000000     0.478630000000     0.0379602  
H234     H      0.243480000000     0.828550000000     0.481980000000     0.0833015  
H235     H      0.107030000000     0.686240000000     0.522130000000     0.0559278  
H236     H      0.185210000000     0.651000000000     0.534000000000     0.0531424  
H237     H      0.225150000000     0.787960000000     0.521500000000     0.0434232  
H238     H      0.136820000000     0.594290000000     0.543770000000     0.0213057  
H239     H      0.623510000000     0.558990000000     0.418080000000     0.0192237  
H240     H      0.824450000000     0.460960000000     0.498820000000     0.0172698  
H241     H      0.739500000000     0.563090000000     0.426030000000     0.0408016  
H242     H      0.736500000000     0.488910000000     0.514240000000     0.0384415  
H243     H      0.772330000000     0.469010000000     0.492840000000     0.05548    
H244     H      0.680080000000     0.485620000000     0.492230000000     0.0399424  
H245     H      0.841810000000     0.575870000000     0.491890000000     0.0808961  
H246     H      0.684390000000     0.570270000000     0.435870000000     0.0556991  
H247     H      0.647750000000     0.464010000000     0.443160000000     0.0554087  
H248     H      0.796250000000     0.566080000000     0.447870000000     0.0419033  
H249     H      0.587580000000     0.453700000000     0.425850000000     0.0418345  
H250     H      0.079610000000     0.405720000000     0.477890000000     0.0247762  
H251     H      0.387310000000     0.522780000000     0.553320000000     0.0262728  
H252     H      0.193230000000     0.413530000000     0.498020000000     0.0393871  
H253     H      0.268470000000     0.504660000000     0.562640000000     0.0377047  
H254     H      0.328130000000     0.519100000000     0.549560000000     0.0565018  
H255     H      0.213380000000     0.501720000000     0.537660000000     0.0373123  
H256     H      0.279260000000     0.411880000000     0.568360000000     0.0806448  
H257     H      0.132060000000     0.403770000000     0.503170000000     0.0533251  
H258     H      0.194780000000     0.511380000000     0.487540000000     0.0508387  
H259     H      0.248040000000     0.416400000000     0.522810000000     0.0411545  
H260     H      0.142240000000     0.512370000000     0.462630000000     0.0197789  
H261     H      0.959640000000     0.535590000000     0.598920000000     0.0308694  
H262     H      0.956980000000     0.439590000000     0.844750000000     0.0351871  
H263     H      0.984190000000     0.540290000000     0.696050000000     0.0416971  
H264     H      0.899430000000     0.437360000000     0.753480000000     0.0396696  
H265     H      0.947670000000     0.440220000000     0.792780000000     0.0613704  
H266     H      0.896900000000     0.437770000000     0.700820000000     0.0396054  
H267     H      0.947770000000     0.534150000000     0.789340000000     0.0835077  
H268     H      0.951530000000     0.537750000000     0.649380000000     0.0561519  
H269     H      0.935640000000     0.437080000000     0.667900000000     0.0538209  
H270     H      0.985920000000     0.540010000000     0.748640000000     0.0451137  
H271     H      0.942780000000     0.435290000000     0.617870000000     0.0232188  
H272     H      0.039620000000     0.528400000000     0.345510000000     0.0274739  
H273     H      0.028420000000     0.439810000000     0.116840000000     0.025614   
H274     H      0.998200000000     0.499880000000     0.255720000000     0.0357819  
H275     H      0.066020000000     0.453680000000     0.214800000000     0.0384195  
H276     H      0.030340000000     0.434330000000     0.169260000000     0.0571806  
H277     H      0.062600000000     0.449600000000     0.267620000000     0.0396529  
H278     H      0.046900000000     0.534670000000     0.168650000000     0.0817866  
H279     H      0.046710000000     0.528120000000     0.295020000000     0.0556386  
H280     H      0.014920000000     0.422880000000     0.308090000000     0.0547577  
H281     H      0.000970000000     0.503470000000     0.203500000000     0.0438491  
H282     H      0.007980000000     0.423760000000     0.359310000000     0.0265691  
H283     H      0.657330000000     0.072980000000     0.921660000000     0.0260565  
H284     H      0.837690000000     0.356110000000     0.941320000000     0.0288727  
H285     H      0.765980000000     0.170970000000     0.934900000000     0.0394295  
H286     H      0.764300000000     0.270410000000     0.880550000000     0.0393243  
H287     H      0.790300000000     0.302230000000     0.927740000000     0.0583589  
H288     H      0.709840000000     0.215710000000     0.879550000000     0.0396865  
H289     H      0.869920000000     0.279390000000     0.903050000000     0.0805648  
H290     H      0.715170000000     0.121920000000     0.908540000000     0.052934   
H291     H      0.670910000000     0.186270000000     0.919880000000     0.0540034  
H292     H      0.820950000000     0.225910000000     0.935280000000     0.0413545  
H293     H      0.614680000000     0.138040000000     0.932530000000     0.0271955  
H294     H      0.149470000000     0.620420000000     0.012780000000     0.0209956  
H295     H      0.343740000000     0.887390000000     0.058320000000     0.0227685  
H296     H      0.216480000000     0.713510000000     0.076960000000     0.0426259  
H297     H      0.204190000000     0.796670000000     0.004290000000     0.0411443  
H298     H      0.286030000000     0.838730000000     0.071680000000     0.0583915  
H299     H      0.153170000000     0.739460000000     0.010500000000     0.0421894  
H300     H      0.267530000000     0.809130000000     0.984700000000     0.0839077  
H301     H      0.193060000000     0.677080000000     0.023500000000     0.0567153  
H302     H      0.109500000000     0.686650000000     0.059290000000     0.0577506  
H303     H      0.267170000000     0.770980000000     0.071380000000     0.0392074  
H304     H      0.065970000000     0.628580000000     0.049180000000     0.0345946  
H305     H      0.591110000000     0.416820000000     0.976690000000     0.024707   
H306     H      0.904450000000     0.533950000000     0.044890000000     0.0333159  
H307     H      0.688360000000     0.439900000000     0.040240000000     0.0387606  
H308     H      0.805240000000     0.518710000000     0.996240000000     0.0561237  
H309     H      0.848290000000     0.536540000000     0.038820000000     0.0615578  
H310     H      0.749170000000     0.513410000000     0.972020000000     0.0415149  
H311     H      0.788270000000     0.428930000000     0.055020000000     0.0823678  
H312     H      0.647870000000     0.419200000000     0.996780000000     0.0546137  
H313     H      0.702660000000     0.526650000000     0.977320000000     0.0520366  
H314     H      0.744780000000     0.445030000000     0.064450000000     0.0407843  
H315     H      0.646450000000     0.523190000000     0.956680000000     0.0207086  
H316     H      0.401020000000     0.570040000000     0.000810000000     0.0335808  
H317     H      0.093380000000     0.454830000000     0.931030000000     0.0341093  
H318     H      0.302820000000     0.566670000000     0.944170000000     0.0422393  
H319     H      0.187960000000     0.497890000000     0.994030000000     0.0362266  
H320     H      0.153230000000     0.467330000000     0.950510000000     0.0574647  
H321     H      0.244380000000     0.502490000000     0.017490000000     0.0386831  
H322     H      0.192910000000     0.571540000000     0.921280000000     0.0796314  
H323     H      0.350010000000     0.581750000000     0.992420000000     0.0572493  
H324     H      0.276140000000     0.475310000000     0.994980000000     0.0533934  
H325     H      0.246090000000     0.561860000000     0.920400000000     0.0427162  
H326     H      0.326820000000     0.464710000000     0.002280000000     0.0201223  
H327     H      0.856840000000     0.826440000000     0.526140000000     0.024813   
H328     H      0.555630000000     0.630100000000     0.545350000000     0.0278243  
H329     H      0.706770000000     0.793100000000     0.523070000000     0.0402679  
H330     H      0.708840000000     0.699630000000     0.588030000000     0.0433169  
H331     H      0.601570000000     0.686960000000     0.556630000000     0.0594594  
H332     H      0.763200000000     0.754450000000     0.585250000000     0.0411997  
H333     H      0.685110000000     0.661630000000     0.548410000000     0.0815635  
H334     H      0.799960000000     0.778900000000     0.539420000000     0.0553203  
H335     H      0.758960000000     0.845340000000     0.551980000000     0.055164   
H336     H      0.652090000000     0.737790000000     0.525620000000     0.0390577  
H337     H      0.817430000000     0.893460000000     0.538850000000     0.028586   
H338     H      0.412510000000     0.341460000000     0.411050000000     0.0354231  
H339     H      0.139660000000     0.121560000000     0.483260000000     0.0310103  
H340     H      0.278730000000     0.245380000000     0.380160000000     0.0414537  
H341     H      0.264860000000     0.177270000000     0.474260000000     0.0412439  
H342     H      0.198380000000     0.168310000000     0.473570000000     0.0588469  
H343     H      0.316920000000     0.233600000000     0.468270000000     0.0419006  
H344     H      0.204040000000     0.121850000000     0.401190000000     0.0818912  
H345     H      0.370880000000     0.282170000000     0.403170000000     0.0571589  
H346     H      0.288260000000     0.287300000000     0.444860000000     0.0549489  
H347     H      0.226470000000     0.188590000000     0.386000000000     0.0417835  
H348     H      0.329420000000     0.345330000000     0.452430000000     0.0202532  
H349     H      0.575370000000     0.978450000000     0.382050000000     0.024401   
H350     H      0.816080000000     0.942450000000     0.491870000000     0.0296453  
H351     H      0.681660000000     0.995070000000     0.415280000000     0.044559   
H352     H      0.703490000000     0.897580000000     0.434040000000     0.0390557  
H353     H      0.754070000000     0.930240000000     0.479480000000     0.0609039  
H354     H      0.641530000000     0.887760000000     0.422110000000     0.0397739  
H355     H      0.786280000000     0.988620000000     0.397940000000     0.082812   
H356     H      0.633320000000     0.980340000000     0.382520000000     0.0564183  
H357     H      0.591980000000     0.888060000000     0.438260000000     0.0558684  
H358     H      0.743140000000     0.004370000000     0.425180000000     0.0476359  
H359     H      0.533340000000     0.885830000000     0.435160000000     0.0258043  
H360     H      0.386580000000     0.989650000000     0.578050000000     0.0273821  
H361     H      0.149530000000     0.989190000000     0.481450000000     0.0473527  
H362     H      0.314230000000     0.037460000000     0.593400000000     0.0417821  
H363     H      0.272860000000     0.056180000000     0.492310000000     0.0426179  
H364     H      0.213130000000     0.007150000000     0.491100000000     0.0655967  
H365     H      0.334440000000     0.064870000000     0.502420000000     0.0421468  
H366     H      0.213120000000     0.051530000000     0.567080000000     0.0818242  
H367     H      0.338500000000     0.002620000000     0.580840000000     0.0574079  
H368     H      0.397000000000     0.094710000000     0.527360000000     0.0547719  
H369     H      0.252310000000     0.027650000000     0.583210000000     0.0429021  
H370     H      0.445440000000     0.080830000000     0.525370000000     0.0290582  
H371     H      0.002980000000     0.629230000000     0.498680000000     0.0409036  
H372     H      0.963250000000     0.848370000000     0.425100000000     0.0249926  
H373     H      0.974240000000     0.708600000000     0.464040000000     0.0452243  
H374     H      0.072490000000     0.804990000000     0.410060000000     0.0430646  
H375     H      0.966940000000     0.798960000000     0.419010000000     0.0583747  
H376     H      0.070920000000     0.750210000000     0.416250000000     0.0419425  
H377     H      0.081580000000     0.851410000000     0.440760000000     0.0828219  
H378     H      0.011390000000     0.685380000000     0.491230000000     0.0594658  
H379     H      0.030840000000     0.689450000000     0.401470000000     0.0552605  
H380     H      0.976130000000     0.762610000000     0.458430000000     0.0397511  
H381     H      0.022280000000     0.632550000000     0.409590000000     0.0282059  
H382     H      0.938660000000     0.324920000000     0.547610000000     0.0266241  
H383     H      0.006440000000     0.113040000000     0.542920000000     0.0288533  
H384     H      0.893380000000     0.208000000000     0.542080000000     0.040542   
H385     H      0.992250000000     0.196830000000     0.505710000000     0.0387263  
H386     H      0.000780000000     0.162020000000     0.546520000000     0.0611375  
H387     H      0.993080000000     0.250320000000     0.498160000000     0.0386249  
H388     H      0.886960000000     0.106900000000     0.522170000000     0.0822631  
H389     H      0.930180000000     0.268140000000     0.556520000000     0.0533798  
H390     H      0.958430000000     0.273910000000     0.469010000000     0.0532273  
H391     H      0.893030000000     0.153790000000     0.550420000000     0.0414258  
H392     H      0.967330000000     0.330200000000     0.460940000000     0.0267331  
H393     H      0.988810000000     0.946960000000     0.630640000000     0.0226378  
H394     H      0.928160000000     0.997160000000     0.849220000000     0.0201646  
H395     H      0.907350000000     0.900630000000     0.711240000000     0.0420017  
H396     H      0.948100000000     0.006970000000     0.755850000000     0.0371914  
H397     H      0.917030000000     0.993740000000     0.797570000000     0.0551707  
H398     H      0.949450000000     0.007730000000     0.703520000000     0.0408423  
H399     H      0.941400000000     0.912410000000     0.804450000000     0.0808594  
H400     H      0.976360000000     0.941530000000     0.681240000000     0.0559082  
H401     H      0.894290000000     0.970610000000     0.656480000000     0.0569575  
H402     H      0.903410000000     0.899020000000     0.763420000000     0.0410871  
H403     H      0.906350000000     0.974910000000     0.605680000000     0.0313579  
H404     H      0.064910000000     0.983570000000     0.364930000000     0.0422646  
H405     H      0.031270000000     0.045390000000     0.112500000000     0.0303319  
H406     H      0.095900000000     0.019940000000     0.270220000000     0.0440201  
H407     H      0.987390000000     0.990430000000     0.202780000000     0.0423274  
H408     H      0.035270000000     0.048560000000     0.164430000000     0.0619864  
H409     H      0.981040000000     0.986320000000     0.254580000000     0.0381844  
H410     H      0.060520000000     0.967860000000     0.178200000000     0.08454    
H411     H      0.074560000000     0.987180000000     0.313810000000     0.0599937  
H412     H      0.993080000000     0.018120000000     0.292460000000     0.0521997  
H413     H      0.101240000000     0.021680000000     0.218020000000     0.0440348  
H414     H      0.982650000000     0.012200000000     0.342930000000     0.0222407  
H415     H      0.810660000000     0.889080000000     0.977260000000     0.027088   
H416     H      0.642590000000     0.602880000000     0.038130000000     0.0208247  
H417     H      0.733700000000     0.795640000000     0.023180000000     0.0404351  
H418     H      0.687660000000     0.691550000000     0.973780000000     0.0368403  
H419     H      0.690000000000     0.659020000000     0.026560000000     0.0556223  
H420     H      0.736300000000     0.743690000000     0.952800000000     0.0393858  
H421     H      0.614640000000     0.696010000000     0.026980000000     0.0795583  
H422     H      0.753670000000     0.839020000000     0.985990000000     0.0540706  
H423     H      0.798490000000     0.779900000000     0.961180000000     0.0534734  
H424     H      0.683840000000     0.743550000000     0.043200000000     0.040829   
H425     H      0.854800000000     0.830960000000     0.951280000000     0.0300179  
H426     H      0.414130000000     0.330890000000     0.938080000000     0.0268156  
H427     H      0.121470000000     0.132250000000     0.010390000000     0.0260743  
H428     H      0.328340000000     0.239420000000     0.984130000000     0.0405292  
H429     H      0.202140000000     0.201160000000     0.943880000000     0.0393435  
H430     H      0.175260000000     0.184240000000     0.996650000000     0.0569557  
H431     H      0.251350000000     0.252150000000     0.922100000000     0.0385436  
H432     H      0.230190000000     0.128680000000     0.986980000000     0.0844122  
H433     H      0.366600000000     0.272570000000     0.944420000000     0.053285   
H434     H      0.286910000000     0.306210000000     0.936630000000     0.0518186  
H435     H      0.278860000000     0.187320000000     0.004910000000     0.041248   
H436     H      0.334260000000     0.363090000000     0.929770000000     0.0170476  
H437     H      0.651540000000     0.992950000000     0.968090000000     0.0269505  
H438     H      0.943750000000     0.073970000000     0.033280000000     0.0203748  
H439     H      0.739820000000     0.969580000000     0.015230000000     0.0394507  
H440     H      0.832480000000     0.070630000000     0.063070000000     0.0391123  
H441     H      0.887060000000     0.075980000000     0.030190000000     0.0551497  
H442     H      0.770980000000     0.062970000000     0.050930000000     0.0396877  
H443     H      0.837540000000     0.981110000000     0.081010000000     0.0835376  
H444     H      0.713000000000     0.002770000000     0.979790000000     0.0530373  
H445     H      0.704390000000     0.016520000000     0.067890000000     0.0548124  
H446     H      0.800630000000     0.976850000000     0.027850000000     0.0413523  
H447     H      0.642650000000     0.005940000000     0.055870000000     0.0290103  
H448     H      0.070510000000     0.956510000000     0.879200000000     0.024316   
H449     H      0.318070000000     0.939580000000     0.988750000000     0.0363827  
H450     H      0.173960000000     0.971850000000     0.899850000000     0.0449727  
H451     H      0.201000000000     0.880710000000     0.939570000000     0.0429791  
H452     H      0.254140000000     0.920610000000     0.976730000000     0.0631732  
H453     H      0.137630000000     0.867220000000     0.928080000000     0.0412298  
H454     H      0.279300000000     0.968470000000     0.890600000000     0.0857628  
H455     H      0.121620000000     0.949020000000     0.871690000000     0.0579564  
H456     H      0.090260000000     0.872400000000     0.943370000000     0.0545712  
H457     H      0.236100000000     0.984320000000     0.909850000000     0.0471606  
H458     H      0.036830000000     0.877940000000     0.947290000000     0.0249514  
H459     H      0.948140000000     0.825530000000     0.050570000000     0.0234993  
H460     H      0.993740000000     0.616880000000     0.022360000000     0.0252173  
H461     H      0.885230000000     0.712100000000     0.971490000000     0.0391853  
H462     H      0.946830000000     0.675510000000     0.052760000000     0.0379048  
H463     H      0.979080000000     0.658980000000     0.030450000000     0.0567455  
H464     H      0.948410000000     0.728590000000     0.053310000000     0.0389349  
H465     H      0.877790000000     0.607990000000     0.980460000000     0.0775352  
H466     H      0.929230000000     0.766130000000     0.055800000000     0.052934   
H467     H      0.923950000000     0.766840000000     0.962370000000     0.0557084  
H468     H      0.888490000000     0.661530000000     0.968850000000     0.0406809  
H469     H      0.939690000000     0.824640000000     0.958110000000     0.0341087  
H470     H      0.017400000000     0.131730000000     0.922780000000     0.0244174  
H471     H      0.046200000000     0.369640000000     0.014570000000     0.0240024  
H472     H      0.020780000000     0.214410000000     0.002770000000     0.04002    
H473     H      0.080260000000     0.306370000000     0.926210000000     0.0403882  
H474     H      0.057000000000     0.323410000000     0.012680000000     0.055361   
H475     H      0.079950000000     0.253040000000     0.924770000000     0.0396933  
H476     H      0.041820000000     0.330550000000     0.919620000000     0.0851381  
H477     H      0.028090000000     0.189210000000     0.919350000000     0.0554292  
H478     H      0.071770000000     0.197880000000     0.007870000000     0.0536643  
H479     H      0.019620000000     0.266560000000     0.003730000000     0.0388749  
H480     H      0.061070000000     0.140990000000     0.010790000000     0.0272157  
N1       N      0.520490000000     0.483260000000     0.615800000000    -0.206175   
N2       N      0.522330000000     0.476340000000     0.858540000000    -0.193227   
N3       N      0.460580000000     0.496150000000     0.107010000000    -0.204754   
N4       N      0.454360000000     0.487980000000     0.349940000000    -0.192644   
N5       N      0.440940000000     0.826200000000     0.502120000000    -0.209843   
N6       N      0.433650000000     0.585890000000     0.496800000000    -0.194215   
N7       N      0.516630000000     0.368570000000     0.471360000000    -0.208661   
N8       N      0.514940000000     0.122430000000     0.463050000000    -0.194977   
N9       N      0.521760000000     0.996970000000     0.849100000000    -0.203873   
N10      N      0.542870000000     0.002240000000     0.607290000000    -0.191229   
N11      N      0.428780000000     0.951010000000     0.351850000000    -0.205933   
N12      N      0.458240000000     0.972810000000     0.108320000000    -0.191553   
N13      N      0.523620000000     0.883190000000     0.933350000000    -0.206342   
N14      N      0.509110000000     0.629190000000     0.951910000000    -0.187939   
N15      N      0.454070000000     0.088580000000     0.021200000000    -0.204687   
N16      N      0.463120000000     0.339000000000     0.010650000000    -0.190519   
N17      N      0.635770000000     0.096370000000     0.496160000000    -0.207938   
N18      N      0.872500000000     0.348260000000     0.430330000000    -0.194056   
N19      N      0.328600000000     0.855470000000     0.462230000000    -0.207352   
N20      N      0.094090000000     0.607200000000     0.536370000000    -0.193215   
N21      N      0.863720000000     0.513440000000     0.497700000000    -0.20773    
N22      N      0.600690000000     0.505440000000     0.422170000000    -0.195485   
N23      N      0.367010000000     0.469720000000     0.559540000000    -0.207746   
N24      N      0.106690000000     0.459300000000     0.469550000000    -0.195752   
N25      N      0.958240000000     0.486610000000     0.847830000000    -0.204647   
N26      N      0.952190000000     0.485470000000     0.604540000000    -0.193351   
N27      N      0.034280000000     0.489430000000     0.112230000000    -0.207188   
N28      N      0.022110000000     0.475820000000     0.356130000000    -0.193442   
N29      N      0.881780000000     0.349720000000     0.930320000000    -0.204287   
N30      N      0.631800000000     0.101700000000     0.928600000000    -0.1912     
N31      N      0.339640000000     0.875060000000     0.014640000000    -0.208221   
N32      N      0.104220000000     0.620500000000     0.029570000000    -0.190458   
N33      N      0.878470000000     0.480190000000     0.051070000000    -0.207159   
N34      N      0.614380000000     0.469930000000     0.966230000000    -0.195212   
N35      N      0.107550000000     0.505910000000     0.916470000000    -0.209343   
N36      N      0.367550000000     0.516680000000     0.001010000000    -0.192402   
N37      N      0.593990000000     0.614130000000     0.539200000000    -0.204673   
N38      N      0.841510000000     0.863710000000     0.531210000000    -0.190593   
N39      N      0.136890000000     0.093790000000     0.448170000000    -0.203874   
N40      N      0.374560000000     0.347570000000     0.433120000000    -0.19149    
N41      N      0.837330000000     0.971960000000     0.451930000000    -0.203261   
N42      N      0.550840000000     0.932800000000     0.409590000000    -0.198105   
N43      N      0.143520000000     0.008890000000     0.518840000000    -0.20241    
N44      N      0.418460000000     0.033490000000     0.550310000000    -0.193571   
N45      N      0.019650000000     0.878420000000     0.437860000000    -0.204679   
N46      N      0.011020000000     0.626130000000     0.454530000000    -0.189023   
N47      N      0.950650000000     0.081680000000     0.529370000000    -0.205415   
N48      N      0.954420000000     0.332260000000     0.503840000000    -0.191088   
N49      N      0.940670000000     0.956690000000     0.857120000000    -0.206323   
N50      N      0.948690000000     0.961550000000     0.614280000000    -0.192649   
N51      N      0.041690000000     0.003720000000     0.115050000000    -0.205156   
N52      N      0.022520000000     0.996820000000     0.357800000000    -0.191689   
N53      N      0.599830000000     0.615840000000     0.035450000000    -0.205832   
N54      N      0.837410000000     0.863500000000     0.964890000000    -0.193085   
N55      N      0.143870000000     0.100460000000     0.004800000000    -0.207502   
N56      N      0.377840000000     0.351290000000     0.935020000000    -0.194057   
N57      N      0.922470000000     0.025620000000     0.057160000000    -0.212705   
N58      N      0.642320000000     0.998650000000     0.011060000000    -0.191508   
N59      N      0.335820000000     0.964760000000     0.946710000000    -0.203662   
N60      N      0.051390000000     0.918680000000     0.914470000000    -0.191323   
N61      N      0.945810000000     0.588970000000     0.995490000000    -0.208034   
N62      N      0.945560000000     0.829600000000     0.004030000000    -0.19338    
N63      N      0.037030000000     0.377060000000     0.968380000000    -0.205411   
N64      N      0.037090000000     0.131610000000     0.967350000000    -0.193844   
O1       O      0.106530000000     0.049150000000     0.988610000000    -0.360025   
O2       O      0.084460000000     0.070870000000     0.017030000000    -0.367564   
O3       O      0.959200000000     0.990760000000     0.894400000000    -0.381582   
O4       O      0.947900000000     0.936910000000     0.903790000000    -0.358464   
O5       O      0.011460000000     0.080260000000     0.948830000000    -0.367804   
O6       O      0.031580000000     0.085710000000     0.996170000000    -0.370298   
O7       O      0.056320000000     0.963600000000     0.932890000000    -0.382814   
O8       O      0.002850000000     0.914970000000     0.935150000000    -0.346435   
O9       O      0.104720000000     0.030630000000     0.935250000000    -0.316955   
O10      O      0.098540000000     0.975720000000     0.994100000000    -0.5254     
O11      O      0.020020000000     0.056300000000     0.898130000000    -0.519529   
O12      O      0.935250000000     0.034210000000     0.922010000000    -0.356375   
O13      O      0.036460000000     0.034610000000     0.969460000000    -0.497835   
O14      O      0.008210000000     0.984670000000     0.938180000000    -0.635155   
O15      O      0.970230000000     0.880540000000     0.023240000000    -0.377645   
O16      O      0.952570000000     0.876050000000     0.975390000000    -0.366859   
O17      O      0.941480000000     0.989260000000     0.048240000000    -0.337021   
O18      O      0.978830000000     0.043360000000     0.040170000000    -0.368522   
O19      O      0.875790000000     0.914050000000     0.981900000000    -0.383412   
O20      O      0.897590000000     0.891230000000     0.954370000000    -0.364136   
O21      O      0.021540000000     0.969770000000     0.077670000000    -0.346185   
O22      O      0.034820000000     0.024260000000     0.068710000000    -0.370968   
O23      O      0.961690000000     0.904460000000     0.073940000000    -0.519759   
O24      O      0.046680000000     0.927240000000     0.049470000000    -0.331776   
O25      O      0.869490000000     0.935340000000     0.030720000000    -0.329749   
O26      O      0.888990000000     0.994320000000     0.985060000000    -0.535281   
O27      O      0.944690000000     0.926520000000     0.002900000000    -0.633083   
O28      O      0.973980000000     0.976760000000     0.033950000000    -0.466806   
O29      O      0.014800000000     0.942410000000     0.986670000000    -0.498247   
O30      O      0.967200000000     0.019480000000     0.985390000000    -0.629896   
O31      O      0.043940000000     0.993810000000     0.018640000000    -0.633315   
O32      O      0.937800000000     0.967340000000     0.953770000000    -0.50193    
O33      O      0.982300000000     0.891970000000     0.457380000000    -0.385882   
O34      O      0.039010000000     0.933220000000     0.447400000000    -0.348546   
O35      O      0.892550000000     0.981630000000     0.438960000000    -0.35086    
O36      O      0.880520000000     0.973010000000     0.486490000000    -0.359166   
O37      O      0.986200000000     0.992830000000     0.392430000000    -0.386201   
O38      O      0.037190000000     0.988970000000     0.406140000000    -0.357413   
O39      O      0.894900000000     0.883330000000     0.509730000000    -0.375732   
O40      O      0.881310000000     0.920620000000     0.525210000000    -0.360647   
O41      O      0.905440000000     0.869360000000     0.454320000000    -0.340336   
O42      O      0.956760000000     0.867830000000     0.517890000000    -0.529413   
O43      O      0.909310000000     0.948210000000     0.399190000000    -0.521454   
O44      O      0.954020000000     0.035310000000     0.404680000000    -0.322406   
O45      O      0.977120000000     0.949950000000     0.445050000000    -0.501219   
O46      O      0.924700000000     0.945320000000     0.472350000000    -0.637276   
O47      O      0.985580000000     0.964900000000     0.580190000000    -0.378131   
O48      O      0.935570000000     0.970240000000     0.565920000000    -0.372134   
O49      O      0.083510000000     0.074950000000     0.469640000000    -0.376377   
O50      O      0.091860000000     0.038560000000     0.446990000000    -0.341946   
O51      O      0.989270000000     0.068590000000     0.511410000000    -0.380467   
O52      O      0.933610000000     0.026500000000     0.523280000000    -0.345047   
O53      O      0.086720000000     0.994710000000     0.532520000000    -0.341889   
O54      O      0.094540000000     0.990590000000     0.486090000000    -0.353708   
O55      O      0.056360000000     0.003380000000     0.581050000000    -0.513676   
O56      O      0.024740000000     0.924190000000     0.562070000000    -0.35292    
O57      O      0.064760000000     0.089560000000     0.521460000000    -0.337316   
O58      O      0.023010000000     0.092760000000     0.452820000000    -0.534961   
O59      O      0.996400000000     0.009820000000     0.527750000000    -0.634401   
O60      O      0.048710000000     0.013920000000     0.500170000000    -0.494809   
O61      O      0.959900000000     0.939530000000     0.526510000000    -0.500898   
O62      O      0.014000000000     0.020530000000     0.446340000000    -0.633626   
O63      O      0.013880000000     0.943500000000     0.499120000000    -0.632519   
O64      O      0.960590000000     0.016380000000     0.473950000000    -0.493917   
O65      O      0.031640000000     0.412020000000     0.996210000000    -0.378044   
O66      O      0.012570000000     0.410350000000     0.948760000000    -0.337246   
O67      O      0.898120000000     0.453240000000     0.026670000000    -0.361312   
O68      O      0.938960000000     0.503650000000     0.043020000000    -0.358692   
O69      O      0.898200000000     0.390150000000     0.961250000000    -0.379674   
O70      O      0.938830000000     0.396450000000     0.929940000000    -0.344114   
O71      O      0.030780000000     0.468260000000     0.069260000000    -0.375841   
O72      O      0.015110000000     0.508790000000     0.070100000000    -0.35785    
O73      O      0.994290000000     0.399060000000     0.050920000000    -0.349615   
O74      O      0.082390000000     0.462010000000     0.035780000000    -0.52573    
O75      O      0.907010000000     0.388240000000     0.029740000000    -0.53023    
O76      O      0.860140000000     0.417150000000     0.980370000000    -0.320708   
O77      O      0.971760000000     0.425130000000     0.986260000000    -0.502454   
O78      O      0.972820000000     0.459790000000     0.028110000000    -0.636271   
O79      O      0.088640000000     0.579320000000     0.999730000000    -0.382495   
O80      O      0.047610000000     0.573580000000     0.030430000000    -0.351532   
O81      O      0.960650000000     0.505430000000     0.891860000000    -0.356051   
O82      O      0.973850000000     0.463620000000     0.889890000000    -0.366996   
O83      O      0.948020000000     0.552920000000     0.966710000000    -0.346637   
O84      O      0.976390000000     0.560680000000     0.011570000000    -0.372418   
O85      O      0.065000000000     0.522270000000     0.918310000000    -0.340188   
O86      O      0.046560000000     0.468940000000     0.914650000000    -0.343775   
O87      O      0.101960000000     0.588830000000     0.943220000000    -0.518627   
O88      O      0.120370000000     0.532530000000     0.979200000000    -0.363859   
O89      O      0.995050000000     0.574650000000     0.915650000000    -0.331094   
O90      O      0.906170000000     0.508350000000     0.920710000000    -0.51832    
O91      O      0.016150000000     0.545100000000     0.974320000000    -0.634508   
O92      O      0.013790000000     0.510300000000     0.933490000000    -0.470546   
O93      O      0.044810000000     0.510240000000     0.014540000000    -0.49839    
O94      O      0.942360000000     0.460130000000     0.946360000000    -0.635934   
O95      O      0.042620000000     0.476030000000     0.973380000000    -0.628791   
O96      O      0.944690000000     0.493490000000     0.987730000000    -0.496913   
O97      O      0.956190000000     0.378640000000     0.519630000000    -0.369506   
O98      O      0.973600000000     0.381050000000     0.474550000000    -0.364271   
O99      O      0.883680000000     0.481780000000     0.480530000000    -0.381467   
O100     O      0.923660000000     0.526030000000     0.505560000000    -0.348653   
O101     O      0.888590000000     0.400390000000     0.442010000000    -0.383704   
O102     O      0.932630000000     0.388600000000     0.433650000000    -0.36391    
O103     O      0.956650000000     0.457410000000     0.569480000000    -0.381319   
O104     O      0.965910000000     0.510530000000     0.558350000000    -0.371636   
O105     O      0.906320000000     0.391820000000     0.547900000000    -0.340907   
O106     O      0.998740000000     0.421030000000     0.568060000000    -0.531972   
O107     O      0.849250000000     0.417300000000     0.470650000000    -0.516285   
O108     O      0.890180000000     0.470560000000     0.413520000000    -0.354982   
O109     O      0.939560000000     0.422700000000     0.480890000000    -0.499007   
O110     O      0.934870000000     0.465050000000     0.508930000000    -0.631622   
O111     O      0.078360000000     0.556000000000     0.522560000000    -0.384847   
O112     O      0.034110000000     0.568420000000     0.528700000000    -0.362613   
O113     O      0.016440000000     0.503000000000     0.391290000000    -0.376955   
O114     O      0.003760000000     0.448700000000     0.401110000000    -0.375423   
O115     O      0.008640000000     0.579720000000     0.438170000000    -0.369684   
O116     O      0.993780000000     0.577730000000     0.484070000000    -0.358417   
O117     O      0.076960000000     0.489760000000     0.459350000000    -0.355081   
O118     O      0.045240000000     0.434780000000     0.457170000000    -0.364882   
O119     O      0.121080000000     0.540480000000     0.499130000000    -0.519688   
O120     O      0.077890000000     0.477540000000     0.538000000000    -0.366385   
O121     O      0.059420000000     0.569610000000     0.410310000000    -0.336278   
O122     O      0.966360000000     0.533480000000     0.390240000000    -0.528825   
O123     O      0.028630000000     0.537140000000     0.477950000000    -0.633781   
O124     O      0.032470000000     0.494120000000     0.450250000000    -0.467244   
O125     O      0.008630000000     0.491340000000     0.528770000000    -0.4945     
O126     O      0.958980000000     0.467610000000     0.430130000000    -0.630605   
O127     O      0.013150000000     0.446940000000     0.500280000000    -0.626505   
O128     O      0.954660000000     0.512350000000     0.459140000000    -0.494452   
O129     O      0.391730000000     0.977440000000     0.933350000000    -0.356298   
O130     O      0.382260000000     0.974060000000     0.980960000000    -0.354071   
O131     O      0.485940000000     0.896160000000     0.953120000000    -0.358974   
O132     O      0.541970000000     0.937910000000     0.941280000000    -0.36394    
O133     O      0.392600000000     0.893160000000     0.992960000000    -0.352586   
O134     O      0.387260000000     0.927700000000     0.020620000000    -0.365695   
O135     O      0.485650000000     0.993060000000     0.884340000000    -0.35799    
O136     O      0.538990000000     0.993860000000     0.897680000000    -0.368396   
O137     O      0.409820000000     0.943830000000     0.895530000000    -0.325795   
O138     O      0.449370000000     0.032530000000     0.895340000000    -0.530245   
O139     O      0.414250000000     0.864510000000     0.959400000000    -0.512871   
O140     O      0.462440000000     0.880580000000     0.021740000000    -0.356361   
O141     O      0.428320000000     0.950030000000     0.967270000000    -0.48586    
O142     O      0.479690000000     0.953100000000     0.938780000000    -0.632054   
O143     O      0.578840000000     0.081720000000     0.950630000000    -0.378983   
O144     O      0.593880000000     0.044570000000     0.936940000000    -0.363406   
O145     O      0.494910000000     0.977370000000     0.073500000000    -0.379125   
O146     O      0.442760000000     0.979260000000     0.059950000000    -0.366601   
O147     O      0.588510000000     0.991440000000     0.024910000000    -0.371839   
O148     O      0.596260000000     0.992090000000     0.977230000000    -0.367839   
O149     O      0.492080000000     0.075460000000     0.001870000000    -0.377258   
O150     O      0.437740000000     0.033240000000     0.016200000000    -0.348915   
O151     O      0.569980000000     0.096010000000     0.007620000000    -0.525954   
O152     O      0.519050000000     0.097920000000     0.943580000000    -0.345577   
O153     O      0.570510000000     0.023860000000     0.064660000000    -0.342064   
O154     O      0.529500000000     0.936520000000     0.060600000000    -0.525433   
O155     O      0.552420000000     0.021760000000     0.990580000000    -0.633358   
O156     O      0.500930000000     0.018050000000     0.019150000000    -0.501477   
O157     O      0.514750000000     0.023990000000     0.937160000000    -0.500203   
O158     O      0.465410000000     0.946900000000     0.020920000000    -0.631226   
O159     O      0.461760000000     0.020090000000     0.965180000000    -0.637388   
O160     O      0.518370000000     0.950870000000     0.992190000000    -0.49155    
O161     O      0.488010000000     0.070250000000     0.446520000000    -0.369177   
O162     O      0.520820000000     0.080270000000     0.489660000000    -0.372599   
O163     O      0.367730000000     0.904690000000     0.481280000000    -0.362528   
O164     O      0.388240000000     0.884270000000     0.450210000000    -0.368689   
O165     O      0.421190000000     0.988160000000     0.539720000000    -0.384104   
O166     O      0.469050000000     0.039470000000     0.530310000000    -0.356482   
O167     O      0.445220000000     0.983480000000     0.389950000000    -0.357753   
O168     O      0.437240000000     0.930500000000     0.397930000000    -0.367991   
O169     O      0.415840000000     0.020980000000     0.419640000000    -0.334151   
O170     O      0.502030000000     0.051730000000     0.394170000000    -0.521075   
O171     O      0.372040000000     0.973850000000     0.485160000000    -0.5213     
O172     O      0.377800000000     0.917080000000     0.539290000000    -0.325571   
O173     O      0.456270000000     0.010400000000     0.482740000000    -0.491653   
O174     O      0.426320000000     0.958480000000     0.451390000000    -0.636276   
O175     O      0.526340000000     0.966090000000     0.414490000000    -0.353855   
O176     O      0.493380000000     0.911900000000     0.425420000000    -0.363703   
O177     O      0.524190000000     0.969380000000     0.569240000000    -0.379178   
O178     O      0.531070000000     0.021990000000     0.561690000000    -0.375042   
O179     O      0.471220000000     0.879280000000     0.516660000000    -0.356347   
O180     O      0.442580000000     0.869780000000     0.471880000000    -0.370476   
O181     O      0.596990000000     0.046760000000     0.477540000000    -0.361949   
O182     O      0.576490000000     0.066860000000     0.508890000000    -0.366947   
O183     O      0.590360000000     0.971590000000     0.469750000000    -0.533008   
O184     O      0.595330000000     0.029170000000     0.423280000000    -0.332375   
O185     O      0.551280000000     0.930670000000     0.536840000000    -0.341471   
O186     O      0.470520000000     0.902270000000     0.568990000000    -0.519325   
O187     O      0.509700000000     0.939790000000     0.477410000000    -0.627727   
O188     O      0.539830000000     0.992720000000     0.508120000000    -0.499462   
O189     O      0.494720000000     0.979090000000     0.430670000000    -0.468904   
O190     O      0.470660000000     0.971400000000     0.529650000000    -0.638388   
O191     O      0.524710000000     0.030450000000     0.461100000000    -0.630106   
O192     O      0.441880000000     0.920590000000     0.498920000000    -0.501319   
O193     O      0.466510000000     0.386540000000     0.025640000000    -0.368638   
O194     O      0.480780000000     0.386660000000     0.979940000000    -0.362912   
O195     O      0.386990000000     0.483150000000     0.986800000000    -0.381521   
O196     O      0.427990000000     0.531230000000     0.006820000000    -0.355937   
O197     O      0.393330000000     0.402970000000     0.947510000000    -0.38486    
O198     O      0.437850000000     0.391890000000     0.938970000000    -0.364149   
O199     O      0.466360000000     0.467350000000     0.073010000000    -0.379332   
O200     O      0.472750000000     0.519010000000     0.059840000000    -0.34955    
O201     O      0.419580000000     0.399460000000     0.056790000000    -0.337663   
O202     O      0.513810000000     0.434990000000     0.071290000000    -0.528726   
O203     O      0.355470000000     0.417380000000     0.980840000000    -0.51736    
O204     O      0.389340000000     0.469830000000     0.920540000000    -0.355326   
O205     O      0.446350000000     0.427420000000     0.986660000000    -0.498968   
O206     O      0.441980000000     0.470920000000     0.013500000000    -0.632255   
O207     O      0.583720000000     0.564700000000     0.021000000000    -0.388533   
O208     O      0.539490000000     0.576380000000     0.028260000000    -0.341789   
O209     O      0.516080000000     0.504540000000     0.892560000000    -0.376513   
O210     O      0.506190000000     0.451260000000     0.904430000000    -0.376136   
O211     O      0.507940000000     0.582430000000     0.937470000000    -0.369436   
O212     O      0.494530000000     0.582440000000     0.983390000000    -0.351926   
O213     O      0.581440000000     0.497540000000     0.958290000000    -0.354429   
O214     O      0.551840000000     0.442150000000     0.958920000000    -0.366165   
O215     O      0.626480000000     0.550570000000     0.995470000000    -0.51921    
O216     O      0.588040000000     0.488960000000     0.037000000000    -0.364838   
O217     O      0.557420000000     0.572410000000     0.907990000000    -0.335665   
O218     O      0.463240000000     0.532220000000     0.892240000000    -0.527147   
O219     O      0.532150000000     0.543370000000     0.977580000000    -0.634992   
O220     O      0.535520000000     0.499170000000     0.951000000000    -0.468584   
O221     O      0.516510000000     0.500300000000     0.030000000000    -0.497551   
O222     O      0.461230000000     0.469690000000     0.934210000000    -0.628229   
O223     O      0.521150000000     0.454750000000     0.002930000000    -0.629856   
O224     O      0.456750000000     0.515130000000     0.961710000000    -0.496185   
O225     O      0.512600000000     0.403770000000     0.499800000000    -0.380688   
O226     O      0.499970000000     0.407230000000     0.451360000000    -0.353037   
O227     O      0.387240000000     0.446930000000     0.531090000000    -0.369742   
O228     O      0.426710000000     0.497560000000     0.547810000000    -0.357466   
O229     O      0.388890000000     0.389500000000     0.461700000000    -0.385669   
O230     O      0.430510000000     0.395650000000     0.431430000000    -0.358027   
O231     O      0.515780000000     0.462450000000     0.572450000000    -0.377539   
O232     O      0.501600000000     0.503810000000     0.573980000000    -0.354648   
O233     O      0.477840000000     0.394370000000     0.554350000000    -0.344843   
O234     O      0.567180000000     0.454190000000     0.538920000000    -0.530672   
O235     O      0.383680000000     0.383710000000     0.523810000000    -0.523158   
O236     O      0.354080000000     0.429200000000     0.472640000000    -0.354972   
O237     O      0.459310000000     0.423290000000     0.487520000000    -0.502693   
O238     O      0.459170000000     0.456280000000     0.529480000000    -0.636658   
O239     O      0.578580000000     0.574660000000     0.507730000000    -0.365201   
O240     O      0.535790000000     0.569650000000     0.536180000000    -0.355087   
O241     O      0.456700000000     0.507570000000     0.393470000000    -0.37406    
O242     O      0.467330000000     0.463840000000     0.392280000000    -0.37362    
O243     O      0.445210000000     0.556360000000     0.467320000000    -0.3717     
O244     O      0.460100000000     0.554440000000     0.515640000000    -0.36875    
O245     O      0.557970000000     0.521500000000     0.424590000000    -0.356689   
O246     O      0.539590000000     0.468420000000     0.419520000000    -0.347491   
O247     O      0.598370000000     0.585210000000     0.452240000000    -0.523794   
O248     O      0.609130000000     0.525480000000     0.488320000000    -0.35353    
O249     O      0.492150000000     0.575170000000     0.417070000000    -0.34628    
O250     O      0.401560000000     0.511680000000     0.422370000000    -0.525067   
O251     O      0.508050000000     0.543440000000     0.479190000000    -0.633905   
O252     O      0.507700000000     0.509830000000     0.437630000000    -0.476571   
O253     O      0.532130000000     0.505270000000     0.519810000000    -0.495392   
O254     O      0.434390000000     0.461000000000     0.446750000000    -0.634554   
O255     O      0.532110000000     0.472360000000     0.477930000000    -0.628509   
O256     O      0.435260000000     0.493640000000     0.488650000000    -0.495647   
Zr1      Zr     0.059460000000     0.996910000000     0.970600000000     1.39666    
Zr2      Zr     0.984100000000     0.021510000000     0.938020000000     1.37147    
Zr3      Zr     0.997350000000     0.939430000000     0.033980000000     1.38128    
Zr4      Zr     0.922580000000     0.965070000000     0.001830000000     1.36619    
Zr5      Zr     0.019780000000     0.031220000000     0.017430000000     1.38174    
Zr6      Zr     0.962540000000     0.930350000000     0.955150000000     1.37855    
Zr7      Zr     0.951570000000     0.910640000000     0.485320000000     1.38394    
Zr8      Zr     0.951670000000     0.986230000000     0.433450000000     1.38838    
Zr9      Zr     0.022150000000     0.973820000000     0.539480000000     1.38706    
Zr10     Zr     0.022900000000     0.049260000000     0.487760000000     1.39765    
Zr11     Zr     0.039540000000     0.984100000000     0.458980000000     1.38442    
Zr12     Zr     0.933870000000     0.975430000000     0.513380000000     1.37824    
Zr13     Zr     0.021830000000     0.451220000000     0.019990000000     1.38769    
Zr14     Zr     0.923800000000     0.435030000000     0.993560000000     1.39515    
Zr15     Zr     0.064120000000     0.534640000000     0.967380000000     1.37888    
Zr16     Zr     0.965150000000     0.519240000000     0.941510000000     1.39139    
Zr17     Zr     0.991540000000     0.450950000000     0.939200000000     1.38136    
Zr18     Zr     0.995350000000     0.519030000000     0.021020000000     1.38001    
Zr19     Zr     0.964180000000     0.433610000000     0.528710000000     1.3802     
Zr20     Zr     0.911770000000     0.454710000000     0.460320000000     1.38515    
Zr21     Zr     0.056270000000     0.504800000000     0.498720000000     1.36512    
Zr22     Zr     0.003210000000     0.525370000000     0.430260000000     1.38857    
Zr23     Zr     0.988020000000     0.435970000000     0.451540000000     1.36265    
Zr24     Zr     0.979780000000     0.523010000000     0.507500000000     1.3738     
Zr25     Zr     0.452530000000     0.987640000000     0.926150000000     1.40645    
Zr26     Zr     0.455710000000     0.916050000000     0.980750000000     1.39426    
Zr27     Zr     0.524020000000     0.055040000000     0.977160000000     1.38788    
Zr28     Zr     0.528030000000     0.983170000000     0.031490000000     1.38179    
Zr29     Zr     0.438400000000     0.982050000000     0.007110000000     1.37675    
Zr30     Zr     0.542490000000     0.989560000000     0.950710000000     1.36759    
Zr31     Zr     0.468630000000     0.013570000000     0.433820000000     1.38894    
Zr32     Zr     0.415800000000     0.955280000000     0.500950000000     1.39847    
Zr33     Zr     0.550050000000     0.995020000000     0.458530000000     1.37565    
Zr34     Zr     0.497950000000     0.937930000000     0.526280000000     1.38946    
Zr35     Zr     0.512030000000     0.026590000000     0.510670000000     1.37269    
Zr36     Zr     0.453120000000     0.923690000000     0.449300000000     1.37666    
Zr37     Zr     0.474010000000     0.441930000000     0.033280000000     1.38021    
Zr38     Zr     0.415740000000     0.456960000000     0.966180000000     1.3865     
Zr39     Zr     0.562260000000     0.513100000000     0.998220000000     1.36774    
Zr40     Zr     0.503700000000     0.528090000000     0.931140000000     1.38256    
Zr41     Zr     0.493070000000     0.440490000000     0.955400000000     1.36935    
Zr42     Zr     0.484870000000     0.529530000000     0.008740000000     1.38493    
Zr43     Zr     0.507520000000     0.446080000000     0.523160000000     1.38522    
Zr44     Zr     0.412110000000     0.434930000000     0.492820000000     1.39644    
Zr45     Zr     0.555430000000     0.531380000000     0.474030000000     1.37563    
Zr46     Zr     0.459720000000     0.520350000000     0.443430000000     1.38423    
Zr47     Zr     0.482880000000     0.450180000000     0.441730000000     1.38558    
Zr48     Zr     0.483350000000     0.515740000000     0.524710000000     1.38614    


