data_structure

_audit_creation_method RASPA-1.0
_audit_creation_date 2023-6-4
_audit_author_name 'Poobodin Mano'

_cell_length_a    42.6891
_cell_length_b    45.8892
_cell_length_c    47.0444
_cell_angle_alpha 82.7768
_cell_angle_beta  96.3112
_cell_angle_gamma 119.437
_cell_volume      79499.9

_symmetry_cell_setting          triclinic
_symmetry_space_group_name_Hall 'P 1'
_symmetry_space_group_name_H-M  'P 1'
_symmetry_Int_Tables_number     1

_symmetry_equiv_pos_as_xyz 'x,y,z'

loop_
_atom_site_label
_atom_site_type_symbol
_atom_site_fract_x
_atom_site_fract_y
_atom_site_fract_z
_atom_site_charge
C1       C      0.092960000000     0.071170000000     0.021980000000     0.407095   
C2       C      0.964040000000     0.987820000000     0.876750000000     0.395153   
C3       C      0.017800000000     0.103250000000     0.979770000000     0.406748   
C4       C      0.047020000000     0.959670000000     0.918820000000     0.395567   
C5       C      0.958590000000     0.872690000000     0.981280000000     0.401306   
C6       C      0.920180000000     0.005460000000     0.044260000000     0.398931   
C7       C      0.873630000000     0.899620000000     0.940400000000     0.396383   
C8       C      0.002400000000     0.986030000000     0.083170000000     0.411404   
C9       C      0.026050000000     0.908010000000     0.454200000000     0.410354   
C10      C      0.867170000000     0.961410000000     0.453980000000     0.397853   
C11      C      0.013490000000     0.984390000000     0.382790000000     0.404618   
C12      C      0.880350000000     0.891850000000     0.519810000000     0.39297    
C13      C      0.962640000000     0.977820000000     0.578870000000     0.403893   
C14      C      0.097200000000     0.075150000000     0.441280000000     0.396292   
C15      C      0.942880000000     0.056050000000     0.497130000000     0.407468   
C16      C      0.113500000000     0.014520000000     0.505810000000     0.401965   
C17      C      0.027140000000     0.397660000000     0.986190000000     0.41087    
C18      C      0.882710000000     0.462580000000     0.030300000000     0.397567   
C19      C      0.916790000000     0.366770000000     0.949730000000     0.396228   
C20      C      0.998600000000     0.482740000000     0.084640000000     0.394679   
C21      C      0.056720000000     0.582130000000     0.025610000000     0.393527   
C22      C      0.976100000000     0.477400000000     0.879620000000     0.401065   
C23      C      0.951290000000     0.564750000000     0.976790000000     0.395615   
C24      C      0.086480000000     0.491480000000     0.936090000000     0.387895   
C25      C      0.965480000000     0.368680000000     0.500150000000     0.395005   
C26      C      0.888850000000     0.502050000000     0.511030000000     0.397979   
C27      C      0.889880000000     0.378830000000     0.441170000000     0.410134   
C28      C      0.986420000000     0.495630000000     0.581020000000     0.408785   
C29      C      0.068100000000     0.581450000000     0.521770000000     0.40714    
C30      C      0.982000000000     0.468980000000     0.382210000000     0.410785   
C31      C      0.990630000000     0.591060000000     0.461940000000     0.387894   
C32      C      0.066300000000     0.467480000000     0.444390000000     0.392064   
C33      C      0.362510000000     0.973630000000     0.945870000000     0.411163   
C34      C      0.503550000000     0.900690000000     0.937540000000     0.39748    
C35      C      0.358030000000     0.894620000000     0.997340000000     0.393464   
C36      C      0.505030000000     0.991560000000     0.872920000000     0.389153   
C37      C      0.593580000000     0.069620000000     0.941390000000     0.385314   
C38      C      0.449410000000     0.966990000000     0.072510000000     0.392876   
C39      C      0.590160000000     0.981130000000     0.000440000000     0.396639   
C40      C      0.454520000000     0.058970000000     0.013110000000     0.395206   
C41      C      0.510540000000     0.096160000000     0.457450000000     0.407967   
C42      C      0.366190000000     0.888320000000     0.453400000000     0.404433   
C43      C      0.434380000000     0.028070000000     0.529130000000     0.396165   
C44      C      0.444520000000     0.961550000000     0.373580000000     0.397996   
C45      C      0.529760000000     0.941370000000     0.414310000000     0.378397   
C46      C      0.520890000000     0.000810000000     0.573960000000     0.388442   
C47      C      0.448020000000     0.864190000000     0.490730000000     0.410301   
C48      C      0.601550000000     0.069230000000     0.498760000000     0.403082   
C49      C      0.463130000000     0.369180000000     0.999600000000     0.387768   
C50      C      0.403760000000     0.516670000000     0.993960000000     0.392759   
C51      C      0.385090000000     0.376430000000     0.949670000000     0.403445   
C52      C      0.487530000000     0.505350000000     0.070820000000     0.394597   
C53      C      0.582730000000     0.585090000000     0.005440000000     0.397466   
C54      C      0.475650000000     0.458690000000     0.875230000000     0.401625   
C55      C      0.500980000000     0.595460000000     0.945790000000     0.392131   
C56      C      0.560260000000     0.454450000000     0.939440000000     0.388338   
C57      C      0.490030000000     0.389530000000     0.467780000000     0.404486   
C58      C      0.387890000000     0.484130000000     0.524450000000     0.397066   
C59      C      0.396490000000     0.390230000000     0.425040000000     0.395482   
C60      C      0.486220000000     0.477760000000     0.576160000000     0.398272   
C61      C      0.566760000000     0.581960000000     0.525900000000     0.393483   
C62      C      0.482370000000     0.503240000000     0.369680000000     0.408762   
C63      C      0.454150000000     0.577560000000     0.477820000000     0.405966   
C64      C      0.571610000000     0.498190000000     0.420390000000     0.393301   
C65      C      0.473040000000     0.424160000000     0.807040000000    -0.0772429  
C66      C      0.478910000000     0.493660000000     0.620290000000     0.072174   
C67      C      0.488710000000     0.447050000000     0.620370000000     0.0710925  
C68      C      0.475130000000     0.487770000000     0.649840000000    -0.0928008  
C69      C      0.445110000000     0.455370000000     0.707790000000    -0.0336321  
C70      C      0.441980000000     0.451240000000     0.737390000000    -0.0355923  
C71      C      0.473100000000     0.453780000000     0.696180000000    -0.00653086 
C72      C      0.485300000000     0.440600000000     0.649950000000    -0.0928193  
C73      C      0.466890000000     0.445590000000     0.756010000000    -0.00322275 
C74      C      0.462940000000     0.471530000000     0.797680000000    -0.0908476  
C75      C      0.493910000000     0.442440000000     0.744360000000    -0.0348126  
C76      C      0.465720000000     0.474300000000     0.826930000000     0.0724611  
C77      C      0.476010000000     0.427370000000     0.836750000000     0.050775   
C78      C      0.496960000000     0.446460000000     0.714680000000    -0.032641   
C79      C      0.477930000000     0.460770000000     0.664940000000     0.0509491  
C80      C      0.466900000000     0.446510000000     0.787360000000     0.0470994  
C81      C      0.493510000000     0.541790000000     0.294890000000    -0.0748473  
C82      C      0.482490000000     0.483920000000     0.119760000000     0.0724888  
C83      C      0.490410000000     0.538760000000     0.107410000000     0.073101   
C84      C      0.480190000000     0.486490000000     0.148470000000    -0.0911924  
C85      C      0.452040000000     0.491390000000     0.202880000000    -0.0329647  
C86      C      0.451730000000     0.490620000000     0.232580000000    -0.0339356  
C87      C      0.480340000000     0.517850000000     0.187720000000    -0.00468779 
C88      C      0.488810000000     0.542380000000     0.136310000000    -0.0888173  
C89      C      0.479930000000     0.516150000000     0.247880000000    -0.00141625 
C90      C      0.471650000000     0.482580000000     0.295450000000    -0.0872126  
C91      C      0.507500000000     0.543420000000     0.232500000000    -0.0329809  
C92      C      0.473260000000     0.480330000000     0.325320000000     0.0748913  
C93      C      0.496060000000     0.539230000000     0.325030000000     0.0643136  
C94      C      0.507590000000     0.544320000000     0.202650000000    -0.0314308  
C95      C      0.483070000000     0.515760000000     0.157040000000     0.0515136  
C96      C      0.481280000000     0.513460000000     0.279800000000     0.0491985  
C97      C      0.440330000000     0.782160000000     0.516490000000    -0.0763023  
C98      C      0.431890000000     0.600710000000     0.507260000000     0.0747892  
C99      C      0.434720000000     0.616740000000     0.457370000000     0.073388   
C100     C      0.416160000000     0.620050000000     0.510930000000    -0.0952746  
C101     C      0.388840000000     0.681060000000     0.470010000000    -0.0330434  
C102     C      0.388190000000     0.710600000000     0.473120000000    -0.0343749  
C103     C      0.402200000000     0.666440000000     0.492750000000    -0.00577941 
C104     C      0.421330000000     0.638380000000     0.460630000000    -0.0917372  
C105     C      0.399610000000     0.725430000000     0.499360000000    -0.00259427 
C106     C      0.390470000000     0.775010000000     0.483340000000    -0.0895641  
C107     C      0.407670000000     0.708090000000     0.523140000000    -0.034704   
C108     C      0.404200000000     0.809580000000     0.480830000000     0.0751224  
C109     C      0.453610000000     0.816880000000     0.513850000000     0.0605524  
C110     C      0.409870000000     0.679520000000     0.519770000000    -0.0317469  
C111     C      0.412030000000     0.640510000000     0.487810000000     0.0513789  
C112     C      0.409120000000     0.760970000000     0.500670000000     0.0482243  
C113     C      0.533460000000     0.180820000000     0.472750000000    -0.0775002  
C114     C      0.484000000000     0.347240000000     0.439890000000     0.0753411  
C115     C      0.499010000000     0.344460000000     0.489890000000     0.0728493  
C116     C      0.485130000000     0.317960000000     0.437370000000    -0.0947721  
C117     C      0.511370000000     0.268840000000     0.434350000000    -0.0324833  
C118     C      0.514710000000     0.240550000000     0.432070000000    -0.0344529  
C119     C      0.497180000000     0.271680000000     0.458860000000    -0.00674076 
C120     C      0.501130000000     0.315470000000     0.488010000000    -0.0938945  
C121     C      0.504570000000     0.215120000000     0.454470000000    -0.00380995 
C122     C      0.491130000000     0.163990000000     0.431930000000    -0.090887   
C123     C      0.490330000000     0.217670000000     0.478880000000    -0.0352998  
C124     C      0.493970000000     0.135010000000     0.432700000000     0.0720298  
C125     C      0.537050000000     0.152270000000     0.472320000000     0.0625473  
C126     C      0.486320000000     0.245620000000     0.480960000000    -0.0329661  
C127     C      0.494250000000     0.301960000000     0.461500000000     0.052677   
C128     C      0.509750000000     0.186210000000     0.452950000000     0.0487232  
C129     C      0.492900000000     0.992520000000     0.793620000000    -0.07521    
C130     C      0.527530000000     0.979640000000     0.622130000000     0.06953    
C131     C      0.535680000000     0.034790000000     0.613330000000     0.0692606  
C132     C      0.532420000000     0.982630000000     0.651770000000    -0.0903928  
C133     C      0.557340000000     0.000150000000     0.713900000000    -0.033349   
C134     C      0.555440000000     0.999180000000     0.743680000000    -0.0350338  
C135     C      0.539850000000     0.014210000000     0.694390000000    -0.00512573 
C136     C      0.540430000000     0.038510000000     0.642920000000    -0.0890739  
C137     C      0.535650000000     0.011910000000     0.754650000000    -0.00253022 
C138     C      0.555150000000     0.012050000000     0.807710000000    -0.0859436  
C139     C      0.519500000000     0.027200000000     0.735200000000    -0.0351561  
C140     C      0.546460000000     0.006080000000     0.836630000000     0.0670877  
C141     C      0.484480000000     0.985190000000     0.822550000000     0.0474422  
C142     C      0.521660000000     0.028440000000     0.705540000000    -0.0332586  
C143     C      0.538330000000     0.012080000000     0.662680000000     0.0483951  
C144     C      0.528260000000     0.006080000000     0.785790000000     0.0438919  
C145     C      0.418480000000     0.972980000000     0.297080000000    -0.0736903  
C146     C      0.462640000000     0.953500000000     0.121370000000     0.0721287  
C147     C      0.417290000000     0.969310000000     0.110340000000     0.0705675  
C148     C      0.457490000000     0.950060000000     0.150650000000    -0.092349   
C149     C      0.423490000000     0.926440000000     0.209420000000    -0.0339466  
C150     C      0.422950000000     0.925590000000     0.239280000000    -0.0341985  
C151     C      0.428580000000     0.955270000000     0.191650000000    -0.00528824 
C152     C      0.412120000000     0.966970000000     0.139750000000    -0.0904683  
C153     C      0.428290000000     0.953850000000     0.252320000000    -0.00174228 
C154     C      0.441980000000     0.934600000000     0.302920000000    -0.0851282  
C155     C      0.433080000000     0.982610000000     0.234260000000    -0.0339262  
C156     C      0.444480000000     0.936170000000     0.332700000000     0.0704955  
C157     C      0.421440000000     0.974410000000     0.327010000000     0.0494943  
C158     C      0.432830000000     0.983160000000     0.204360000000    -0.0332379  
C159     C      0.432350000000     0.957160000000     0.160260000000     0.0496548  
C160     C      0.429560000000     0.953710000000     0.284460000000     0.0443471  
C161     C      0.523770000000     0.679540000000     0.908290000000    -0.0739532  
C162     C      0.480920000000     0.844940000000     0.925190000000     0.0747783  
C163     C      0.544000000000     0.881330000000     0.927670000000     0.0719622  
C164     C      0.485790000000     0.818090000000     0.920500000000    -0.0928168  
C165     C      0.506520000000     0.769810000000     0.898640000000    -0.032995   
C166     C      0.505210000000     0.738490000000     0.900830000000    -0.035201   
C167     C      0.524940000000     0.792230000000     0.920040000000    -0.00625858 
C168     C      0.549910000000     0.854460000000     0.923960000000    -0.0909166  
C169     C      0.521590000000     0.728650000000     0.924800000000    -0.00165111 
C170     C      0.502790000000     0.674450000000     0.954760000000    -0.084745   
C171     C      0.541180000000     0.751580000000     0.945620000000    -0.0351431  
C172     C      0.497490000000     0.641770000000     0.958980000000     0.0765734  
C173     C      0.519700000000     0.646870000000     0.913390000000     0.0569912  
C174     C      0.543130000000     0.783180000000     0.943120000000    -0.0325027  
C175     C      0.520480000000     0.822300000000     0.920690000000     0.0508415  
C176     C      0.516060000000     0.693780000000     0.929250000000     0.0460362  
C177     C      0.438340000000     0.284040000000     0.035500000000    -0.0738699  
C178     C      0.479660000000     0.111660000000     0.032310000000     0.0740982  
C179     C      0.417030000000     0.082610000000     0.020190000000     0.0703357  
C180     C      0.477970000000     0.140360000000     0.036340000000    -0.0923706  
C181     C      0.476330000000     0.203570000000     0.016440000000    -0.0333642  
C182     C      0.477680000000     0.234750000000     0.013470000000    -0.0351387  
C183     C      0.446350000000     0.174630000000     0.027680000000    -0.0052873  
C184     C      0.414560000000     0.111580000000     0.023170000000    -0.0892406  
C185     C      0.448860000000     0.238200000000     0.021140000000    -0.00237497 
C186     C      0.464130000000     0.291630000000     0.990660000000    -0.0892381  
C187     C      0.418830000000     0.209460000000     0.032650000000    -0.0349535  
C188     C      0.467420000000     0.323510000000     0.986070000000     0.0655041  
C189     C      0.441190000000     0.316260000000     0.030190000000     0.0465422  
C190     C      0.417520000000     0.177960000000     0.035780000000    -0.0327961  
C191     C      0.445770000000     0.141510000000     0.029950000000     0.049751   
C192     C      0.450230000000     0.271600000000     0.015830000000     0.0446962  
C193     C      0.801500000000     0.305420000000     0.438060000000    -0.0744998  
C194     C      0.664040000000     0.095970000000     0.490870000000     0.0741913  
C195     C      0.641830000000     0.122890000000     0.516190000000     0.0788747  
C196     C      0.696630000000     0.125440000000     0.487650000000    -0.0924975  
C197     C      0.764830000000     0.200730000000     0.496780000000    -0.034557   
C198     C      0.791690000000     0.230650000000     0.484000000000    -0.0340522  
C199     C      0.729230000000     0.187130000000     0.485360000000    -0.00497677 
C200     C      0.673950000000     0.153200000000     0.512750000000    -0.0884877  
C201     C      0.783330000000     0.246990000000     0.459340000000    -0.00245009 
C202     C      0.847010000000     0.288440000000     0.446870000000    -0.0880637  
C203     C      0.747670000000     0.232460000000     0.447610000000    -0.0332502  
C204     C      0.873180000000     0.321710000000     0.440500000000     0.0732724  
C205     C      0.828190000000     0.338380000000     0.431470000000     0.0627479  
C206     C      0.720870000000     0.202980000000     0.460640000000    -0.0322184  
C207     C      0.700800000000     0.154760000000     0.497070000000     0.0520891  
C208     C      0.810900000000     0.280420000000     0.447430000000     0.0472788  
C209     C      0.156860000000     0.654070000000     0.524910000000    -0.0757602  
C210     C      0.305310000000     0.859490000000     0.465860000000     0.0772792  
C211     C      0.326630000000     0.832400000000     0.439880000000     0.0734043  
C212     C      0.273210000000     0.829980000000     0.470170000000    -0.0925187  
C213     C      0.203310000000     0.766860000000     0.474300000000    -0.0330863  
C214     C      0.175630000000     0.737940000000     0.487340000000    -0.0338063  
C215     C      0.235570000000     0.767910000000     0.468570000000    -0.00484821 
C216     C      0.294280000000     0.802170000000     0.443540000000    -0.0912416  
C217     C      0.178710000000     0.708680000000     0.494040000000    -0.00236081 
C218     C      0.113110000000     0.670180000000     0.503880000000    -0.0869789  
C219     C      0.210010000000     0.709090000000     0.486500000000    -0.0343457  
C220     C      0.085820000000     0.638680000000     0.513410000000     0.0690742  
C221     C      0.128890000000     0.622290000000     0.533330000000     0.0534601  
C222     C      0.238210000000     0.738380000000     0.474350000000    -0.0324786  
C223     C      0.267570000000     0.800410000000     0.459830000000     0.0520445  
C224     C      0.149250000000     0.677550000000     0.508030000000     0.0443628  
C225     C      0.669270000000     0.536060000000     0.426980000000    -0.0774272  
C226     C      0.827800000000     0.483570000000     0.518100000000     0.0764824  
C227     C      0.867720000000     0.541720000000     0.508840000000     0.0719505  
C228     C      0.798150000000     0.488710000000     0.512730000000    -0.0902132  
C229     C      0.738580000000     0.506740000000     0.503820000000    -0.0337242  
C230     C      0.706840000000     0.503350000000     0.489200000000    -0.0364272  
C231     C      0.771450000000     0.524040000000     0.490370000000    -0.0059688  
C232     C      0.838350000000     0.547710000000     0.502350000000    -0.0910477  
C233     C      0.707120000000     0.517120000000     0.460710000000    -0.0024985  
C234     C      0.642210000000     0.478750000000     0.447200000000    -0.087314   
C235     C      0.740330000000     0.536270000000     0.447860000000    -0.0355845  
C236     C      0.608780000000     0.473920000000     0.435290000000     0.0685855  
C237     C      0.635310000000     0.530370000000     0.415020000000     0.0474037  
C238     C      0.772200000000     0.539690000000     0.462560000000    -0.0318543  
C239     C      0.803060000000     0.520680000000     0.503070000000     0.0508356  
C240     C      0.672570000000     0.510650000000     0.444620000000     0.042692   
C241     C      0.163160000000     0.501170000000     0.453370000000    -0.075795   
C242     C      0.326570000000     0.456210000000     0.535410000000     0.073721   
C243     C      0.361270000000     0.515060000000     0.537710000000     0.0723393  
C244     C      0.294760000000     0.457810000000     0.534410000000    -0.0935929  
C245     C      0.231180000000     0.472540000000     0.533220000000    -0.033408   
C246     C      0.199260000000     0.468940000000     0.518660000000    -0.0343396  
C247     C      0.264080000000     0.491470000000     0.520130000000    -0.00624432 
C248     C      0.329840000000     0.517870000000     0.535440000000    -0.0931676  
C249     C      0.199440000000     0.483360000000     0.490330000000    -0.00151622 
C250     C      0.133360000000     0.446310000000     0.478450000000    -0.0855939  
C251     C      0.232800000000     0.503340000000     0.477770000000    -0.0355744  
C252     C      0.100560000000     0.442000000000     0.465400000000     0.0713377  
C253     C      0.130000000000     0.495610000000     0.439810000000     0.0497701  
C254     C      0.264760000000     0.507580000000     0.492630000000    -0.0324623  
C255     C      0.296290000000     0.489110000000     0.532060000000     0.0512632  
C256     C      0.164950000000     0.477000000000     0.473950000000     0.0452034  
C257     C      0.009460000000     0.490640000000     0.658360000000    -0.0686601  
C258     C      0.962560000000     0.498860000000     0.834060000000     0.0726829  
C259     C      0.989840000000     0.464220000000     0.836760000000     0.06922    
C260     C      0.963970000000     0.503440000000     0.804350000000    -0.0956423  
C261     C      0.953500000000     0.491590000000     0.740700000000    -0.0319537  
C262     C      0.956700000000     0.496380000000     0.711050000000    -0.0358739  
C263     C      0.982950000000     0.495010000000     0.759350000000    -0.0130582  
C264     C      0.992100000000     0.468680000000     0.807030000000    -0.0990728  
C265     C      0.989480000000     0.504890000000     0.699650000000    -0.00505269 
C266     C      0.975580000000     0.520190000000     0.648510000000    -0.0867498  
C267     C      0.019320000000     0.509760000000     0.718450000000    -0.0323178  
C268     C      0.975980000000     0.518030000000     0.619250000000     0.0734017  
C269     C      0.010310000000     0.489450000000     0.628990000000     0.0651536  
C270     C      0.016000000000     0.504630000000     0.748010000000    -0.027096   
C271     C      0.979390000000     0.488740000000     0.790630000000     0.0546159  
C272     C      0.991730000000     0.505650000000     0.668400000000     0.043677   
C273     C      0.017810000000     0.465780000000     0.161180000000    -0.0667422  
C274     C      0.975650000000     0.487480000000     0.333600000000     0.0801939  
C275     C      0.987750000000     0.441880000000     0.344570000000     0.0815637  
C276     C      0.975380000000     0.485220000000     0.304430000000    -0.0955272  
C277     C      0.954790000000     0.455640000000     0.245510000000    -0.030962   
C278     C      0.958170000000     0.459230000000     0.215990000000    -0.0347194  
C279     C      0.984400000000     0.460720000000     0.264450000000    -0.0113717  
C280     C      0.988570000000     0.439500000000     0.315400000000    -0.0937229  
C281     C      0.991470000000     0.468660000000     0.204960000000    -0.0030692  
C282     C      0.978280000000     0.489630000000     0.155910000000    -0.0816161  
C283     C      0.020910000000     0.473090000000     0.224170000000    -0.0306845  
C284     C      0.981450000000     0.493770000000     0.126380000000     0.0648795  
C285     C      0.021950000000     0.471600000000     0.131600000000     0.051778   
C286     C      0.017270000000     0.468830000000     0.253700000000    -0.0255975  
C287     C      0.982210000000     0.461310000000     0.295200000000     0.0577258  
C288     C      0.995620000000     0.474460000000     0.173580000000     0.0407869  
C289     C      0.854720000000     0.276450000000     0.957720000000    -0.0741881  
C290     C      0.654210000000     0.090750000000     0.927320000000     0.0667579  
C291     C      0.634650000000     0.128520000000     0.936680000000     0.0677371  
C292     C      0.689290000000     0.117740000000     0.923160000000    -0.0893046  
C293     C      0.764520000000     0.178810000000     0.937160000000    -0.0336158  
C294     C      0.798500000000     0.207770000000     0.938270000000    -0.0364288  
C295     C      0.734420000000     0.180320000000     0.923130000000    -0.00618344 
C296     C      0.668910000000     0.155860000000     0.932140000000    -0.0912045  
C297     C      0.803530000000     0.239030000000     0.925090000000    -0.0027036  
C298     C      0.853620000000     0.296870000000     0.908300000000    -0.0857298  
C299     C      0.773880000000     0.240060000000     0.909640000000    -0.0367506  
C300     C      0.883310000000     0.328020000000     0.914830000000     0.0653239  
C301     C      0.884010000000     0.307840000000     0.963760000000     0.0504688  
C302     C      0.739830000000     0.211210000000     0.908820000000    -0.0347857  
C303     C      0.697100000000     0.150910000000     0.925690000000     0.046585   
C304     C      0.838120000000     0.270910000000     0.930100000000     0.0414649  
C305     C      0.268810000000     0.821120000000     0.986600000000    -0.0764956  
C306     C      0.070720000000     0.637430000000     0.035510000000     0.070507   
C307     C      0.115060000000     0.620100000000     0.042540000000     0.0747355  
C308     C      0.097890000000     0.671370000000     0.036510000000    -0.0878398  
C309     C      0.167810000000     0.742680000000     0.044760000000    -0.0345349  
C310     C      0.197750000000     0.774770000000     0.039160000000    -0.0337231  
C311     C      0.164720000000     0.714400000000     0.033280000000    -0.00352753 
C312     C      0.142350000000     0.653040000000     0.044540000000    -0.0889438  
C313     C      0.224770000000     0.779210000000     0.021580000000    -0.00402119 
C314     C      0.276520000000     0.835830000000     0.034960000000    -0.0863109  
C315     C      0.221210000000     0.750830000000     0.010100000000    -0.0310735  
C316     C      0.309270000000     0.864640000000     0.027990000000     0.0670014  
C317     C      0.301380000000     0.850000000000     0.980090000000     0.049499   
C318     C      0.191760000000     0.719170000000     0.015700000000    -0.0350971  
C319     C      0.134460000000     0.679500000000     0.039370000000     0.0482447  
C320     C      0.256670000000     0.812800000000     0.014420000000     0.0455033  
C321     C      0.813820000000     0.485800000000     0.038130000000    -0.0744629  
C322     C      0.590140000000     0.422930000000     0.957740000000     0.0741732  
C323     C      0.624030000000     0.480970000000     0.943830000000     0.0735904  
C324     C      0.621430000000     0.422530000000     0.969960000000    -0.0908759  
C325     C      0.685430000000     0.432440000000     0.010840000000    -0.0297391  
C326     C      0.716580000000     0.434030000000     0.025450000000    -0.0377784  
C327     C      0.687730000000     0.453740000000     0.985850000000    -0.00893146 
C328     C      0.655530000000     0.481660000000     0.956240000000    -0.092353   
C329     C      0.750740000000     0.457530000000     0.015870000000     0.000184416
C330     C      0.786160000000     0.427770000000     0.029080000000    -0.0882142  
C331     C      0.753260000000     0.479220000000     0.991370000000    -0.0390762  
C332     C      0.819720000000     0.429430000000     0.033950000000     0.0716198  
C333     C      0.847040000000     0.486190000000     0.044440000000     0.0503822  
C334     C      0.722210000000     0.477090000000     0.976350000000    -0.0317555  
C335     C      0.654570000000     0.452460000000     0.970320000000     0.0517194  
C336     C      0.783610000000     0.456870000000     0.028800000000     0.0446186  
C337     C      0.183090000000     0.521970000000     0.929430000000    -0.0752841  
C338     C      0.381190000000     0.545070000000     0.958570000000     0.0750045  
C339     C      0.341190000000     0.496310000000     0.986140000000     0.0707561  
C340     C      0.352240000000     0.543220000000     0.939920000000    -0.0896695  
C341     C      0.282280000000     0.541130000000     0.912810000000    -0.0318159  
C342     C      0.248900000000     0.537540000000     0.901650000000    -0.0355825  
C343     C      0.285240000000     0.512890000000     0.924800000000    -0.00562456 
C344     C      0.311900000000     0.494070000000     0.968460000000    -0.0919793  
C345     C      0.217670000000     0.505820000000     0.903150000000    -0.00271113 
C346     C      0.149280000000     0.480290000000     0.896200000000    -0.0870606  
C347     C      0.221740000000     0.477290000000     0.910780000000    -0.0355649  
C348     C      0.117270000000     0.476600000000     0.905840000000     0.0655921  
C349     C      0.151330000000     0.515360000000     0.940770000000     0.0483803  
C350     C      0.255300000000     0.480790000000     0.921280000000    -0.0328805  
C351     C      0.317090000000     0.516670000000     0.944160000000     0.0515082  
C352     C      0.182740000000     0.503860000000     0.907780000000     0.0443105  
C353     C      0.792360000000     0.832230000000     0.551220000000    -0.0740571  
C354     C      0.625710000000     0.613540000000     0.546120000000     0.0730699  
C355     C      0.587170000000     0.637510000000     0.538790000000     0.0690367  
C356     C      0.655110000000     0.644440000000     0.552110000000    -0.0918374  
C357     C      0.717110000000     0.711150000000     0.537910000000    -0.0328706  
C358     C      0.747950000000     0.742340000000     0.535130000000    -0.0351557  
C359     C      0.685000000000     0.707690000000     0.547030000000    -0.00492535 
C360     C      0.616700000000     0.669550000000     0.543020000000    -0.0886227  
C361     C      0.747880000000     0.771860000000     0.540180000000    -0.00130149 
C362     C      0.801990000000     0.809520000000     0.511920000000    -0.0873415  
C363     C      0.716160000000     0.768790000000     0.549770000000    -0.0346813  
C364     C      0.834660000000     0.838600000000     0.508070000000     0.0698301  
C365     C      0.825490000000     0.862060000000     0.546540000000     0.0495386  
C366     C      0.685150000000     0.737090000000     0.553240000000    -0.0324574  
C367     C      0.651760000000     0.673670000000     0.548330000000     0.0483913  
C368     C      0.780760000000     0.805200000000     0.534300000000     0.0444069  
C369     C      0.188110000000     0.130080000000     0.412170000000    -0.0733694  
C370     C      0.335900000000     0.346950000000     0.420170000000     0.0723996  
C371     C      0.382260000000     0.338180000000     0.406590000000     0.0703385  
C372     C      0.310730000000     0.313360000000     0.417710000000    -0.0935355  
C373     C      0.283730000000     0.239720000000     0.441470000000    -0.0333913  
C374     C      0.253520000000     0.208000000000     0.444950000000    -0.0360111  
C375     C      0.295480000000     0.254600000000     0.414010000000    -0.00682802 
C376     C      0.357440000000     0.303890000000     0.404070000000    -0.0906669  
C377     C      0.234100000000     0.190310000000     0.421020000000    -0.00173934 
C378     C      0.173470000000     0.160480000000     0.441220000000    -0.0870869  
C379     C      0.247290000000     0.204130000000     0.393600000000    -0.035304   
C380     C      0.140040000000     0.132220000000     0.445350000000     0.0721716  
C381     C      0.153980000000     0.101470000000     0.416630000000     0.0501947  
C382     C      0.277720000000     0.236160000000     0.390110000000    -0.0328409  
C383     C      0.321510000000     0.291090000000     0.410770000000     0.0498466  
C384     C      0.198250000000     0.159700000000     0.424820000000     0.0453012  
C385     C      0.776970000000     0.931910000000     0.416370000000    -0.0740488  
C386     C      0.587330000000     0.960190000000     0.397230000000     0.0693722  
C387     C      0.555140000000     0.904710000000     0.418810000000     0.0652899  
C388     C      0.618240000000     0.957150000000     0.397420000000    -0.0920856  
C389     C      0.677730000000     0.939680000000     0.393550000000    -0.0324112  
C390     C      0.712340000000     0.943580000000     0.399600000000    -0.0335839  
C391     C      0.652960000000     0.927330000000     0.415170000000    -0.0046899  
C392     C      0.586010000000     0.901050000000     0.419960000000    -0.0915817  
C393     C      0.723060000000     0.935620000000     0.427490000000    -0.00187646 
C394     C      0.779950000000     0.957140000000     0.458910000000    -0.0866876  
C395     C      0.697940000000     0.922350000000     0.448900000000    -0.0340943  
C396     C      0.815220000000     0.963000000000     0.464810000000     0.0740859  
C397     C      0.812070000000     0.936890000000     0.423180000000     0.0518776  
C398     C      0.663180000000     0.918070000000     0.442760000000    -0.0336213  
C399     C      0.618330000000     0.927930000000     0.410010000000     0.0481324  
C400     C      0.760540000000     0.941770000000     0.434300000000     0.0468573  
C401     C      0.205920000000     0.055790000000     0.540450000000    -0.0748733  
C402     C      0.424320000000     0.074160000000     0.531950000000     0.0698811  
C403     C      0.387520000000     0.021140000000     0.556080000000     0.0727255  
C404     C      0.398110000000     0.083820000000     0.533890000000    -0.0911074  
C405     C      0.321840000000     0.072590000000     0.513890000000    -0.032495   
C406     C      0.286910000000     0.067970000000     0.507930000000    -0.0349456  
C407     C      0.333090000000     0.065440000000     0.541850000000    -0.00618165 
C408     C      0.361640000000     0.030290000000     0.559350000000    -0.0923868  
C409     C      0.262610000000     0.056400000000     0.529860000000    -0.000993492
C410     C      0.205060000000     0.029130000000     0.499550000000    -0.0808648  
C411     C      0.274800000000     0.051690000000     0.558180000000    -0.034619   
C412     C      0.168520000000     0.019180000000     0.494330000000     0.0771171  
C413     C      0.169330000000     0.046440000000     0.534380000000     0.0531175  
C414     C      0.309610000000     0.056050000000     0.564090000000    -0.0331712  
C415     C      0.365500000000     0.060940000000     0.546420000000     0.0492734  
C416     C      0.224120000000     0.047230000000     0.523080000000     0.0466239  
C417     C      0.070100000000     0.857600000000     0.446230000000    -0.0725866  
C418     C      0.999650000000     0.641500000000     0.479400000000     0.062481   
C419     C      0.007000000000     0.640850000000     0.430360000000     0.0722099  
C420     C      0.009950000000     0.675680000000     0.475360000000    -0.0869065  
C421     C      0.015790000000     0.741230000000     0.418770000000    -0.0259418  
C422     C      0.021550000000     0.774190000000     0.415810000000    -0.0369548  
C423     C      0.029060000000     0.729230000000     0.443490000000    -0.00782495 
C424     C      0.017330000000     0.675040000000     0.425560000000    -0.0908944  
C425     C      0.040700000000     0.796000000000     0.437490000000     0.000707755
C426     C      0.007420000000     0.828330000000     0.430990000000    -0.0837023  
C427     C      0.055930000000     0.784720000000     0.461360000000    -0.0362619  
C428     C      0.004640000000     0.856260000000     0.435470000000     0.0851754  
C429     C      0.066810000000     0.885970000000     0.450320000000     0.0575491  
C430     C      0.050130000000     0.751690000000     0.464340000000    -0.0319445  
C431     C      0.019140000000     0.693010000000     0.448230000000     0.0484636  
C432     C      0.039990000000     0.828170000000     0.437320000000     0.0467327  
C433     C      0.926510000000     0.127040000000     0.481080000000    -0.0747792  
C434     C      0.952270000000     0.318120000000     0.530360000000     0.0680424  
C435     C      0.960150000000     0.320820000000     0.480860000000     0.0703876  
C436     C      0.946820000000     0.285090000000     0.534100000000    -0.0916756  
C437     C      0.918150000000     0.208540000000     0.529350000000    -0.0338318  
C438     C      0.913080000000     0.175880000000     0.528920000000    -0.0358331  
C439     C      0.945290000000     0.235830000000     0.513650000000    -0.00672941 
C440     C      0.954810000000     0.288170000000     0.483820000000    -0.093652   
C441     C      0.934970000000     0.170140000000     0.512660000000    -0.00250843 
C442     C      0.925950000000     0.112740000000     0.532050000000    -0.0868071  
C443     C      0.963190000000     0.197700000000     0.498350000000    -0.0355294  
C444     C      0.926690000000     0.083460000000     0.527300000000     0.0715091  
C445     C      0.926900000000     0.097620000000     0.476940000000     0.06248    
C446     C      0.968370000000     0.230040000000     0.498920000000    -0.0332284  
C447     C      0.948670000000     0.269960000000     0.510690000000     0.0487003  
C448     C      0.928090000000     0.135810000000     0.508790000000     0.0457642  
C449     C      0.965340000000     0.014590000000     0.798880000000    -0.0760229  
C450     C      0.925540000000     0.973810000000     0.615630000000     0.079259   
C451     C      0.980890000000     0.973840000000     0.628120000000     0.0687658  
C452     C      0.920460000000     0.973390000000     0.644710000000    -0.0869909  
C453     C      0.913280000000     0.957090000000     0.711180000000    -0.0335031  
C454     C      0.913240000000     0.959100000000     0.740720000000    -0.0338325  
C455     C      0.944820000000     0.977400000000     0.696350000000    -0.00331609 
C456     C      0.976660000000     0.973410000000     0.657060000000    -0.089823   
C457     C      0.944630000000     0.981740000000     0.755760000000    -0.0016851  
C458     C      0.931810000000     0.954660000000     0.806060000000    -0.085189   
C459     C      0.975780000000     0.002420000000     0.740600000000    -0.0375666  
C460     C      0.938050000000     0.957170000000     0.835670000000     0.0735266  
C461     C      0.972840000000     0.016660000000     0.828560000000     0.0485127  
C462     C      0.975820000000     0.000380000000     0.711360000000    -0.0376003  
C463     C      0.946760000000     0.974090000000     0.665690000000     0.0502588  
C464     C      0.946040000000     0.983580000000     0.787270000000     0.0447706  
C465     C      0.044630000000     0.975190000000     0.315720000000    -0.0751286  
C466     C      0.012320000000     0.013300000000     0.125740000000     0.0819046  
C467     C      0.010160000000     0.960430000000     0.128910000000     0.0778413  
C468     C      0.017850000000     0.014210000000     0.155460000000    -0.0888914  
C469     C      0.045150000000     0.019040000000     0.217250000000    -0.0304218  
C470     C      0.047290000000     0.019730000000     0.247040000000    -0.0328757  
C471     C      0.025460000000     0.988400000000     0.204390000000    -0.00453836 
C472     C      0.016480000000     0.960880000000     0.158700000000    -0.08872    
C473     C      0.030690000000     0.989790000000     0.264650000000    -0.00190805 
C474     C      0.010610000000     0.004570000000     0.305430000000    -0.0843063  
C475     C      0.012430000000     0.959100000000     0.252170000000    -0.0290999  
C476     C      0.006060000000     0.002050000000     0.334620000000     0.0772293  
C477     C      0.040180000000     0.973290000000     0.345220000000     0.0593764  
C478     C      0.009540000000     0.958390000000     0.222350000000    -0.0262583  
C479     C      0.020210000000     0.987920000000     0.172480000000     0.0551281  
C480     C      0.029520000000     0.990590000000     0.295750000000     0.0485149  
C481     C      0.637180000000     0.676920000000     0.004810000000    -0.0682522  
C482     C      0.841260000000     0.841990000000     0.930330000000     0.0690955  
C483     C      0.810000000000     0.869440000000     0.941400000000     0.0730553  
C484     C      0.810490000000     0.810670000000     0.935030000000    -0.0905712  
C485     C      0.736850000000     0.747220000000     0.941640000000    -0.0316671  
C486     C      0.709710000000     0.716610000000     0.953100000000    -0.0342002  
C487     C      0.749280000000     0.776530000000     0.955600000000    -0.00477255 
C488     C      0.778900000000     0.838860000000     0.945950000000    -0.0912462  
C489     C      0.694580000000     0.714500000000     0.978960000000     0.00138521 
C490     C      0.672030000000     0.653400000000     0.991230000000    -0.0868989  
C491     C      0.706500000000     0.743940000000     0.992620000000    -0.0364774  
C492     C      0.644730000000     0.621650000000     0.999580000000     0.0681821  
C493     C      0.610280000000     0.644400000000     0.013900000000     0.0514019  
C494     C      0.733560000000     0.774580000000     0.981100000000    -0.0296484  
C495     C      0.779510000000     0.808920000000     0.944580000000     0.0514033  
C496     C      0.667440000000     0.681320000000     0.991800000000     0.0437028  
C497     C      0.189280000000     0.128040000000     0.026140000000    -0.0737423  
C498     C      0.323170000000     0.338200000000     0.954030000000     0.0745581  
C499     C      0.364230000000     0.317380000000     0.954320000000     0.0720178  
C500     C      0.296350000000     0.306790000000     0.963730000000    -0.0956372  
C501     C      0.258650000000     0.250100000000     0.007890000000    -0.0292503  
C502     C      0.230950000000     0.220800000000     0.020440000000    -0.0362218  
C503     C      0.277230000000     0.248810000000     0.985560000000    -0.0091113  
C504     C      0.337870000000     0.285370000000     0.964450000000    -0.0932451  
C505     C      0.221270000000     0.189500000000     0.011010000000     0.000976938
C506     C      0.157170000000     0.158950000000     0.025500000000    -0.0858412  
C507     C      0.240940000000     0.188080000000     0.989530000000    -0.037817   
C508     C      0.125350000000     0.128650000000     0.029730000000     0.0724045  
C509     C      0.157070000000     0.098090000000     0.030400000000     0.0564968  
C510     C      0.268750000000     0.217460000000     0.976990000000    -0.0314741  
C511     C      0.304080000000     0.280420000000     0.970650000000     0.0514654  
C512     C      0.189140000000     0.158650000000     0.021770000000     0.045583   
C513     C      0.835750000000     0.982650000000     0.072880000000    -0.0717555  
C514     C      0.633440000000     0.984770000000     0.038320000000     0.0713012  
C515     C      0.648070000000     0.990060000000     0.990120000000     0.0700367  
C516     C      0.667830000000     0.990610000000     0.048200000000    -0.0923884  
C517     C      0.760120000000     0.025480000000     0.023850000000    -0.0316682  
C518     C      0.794380000000     0.030040000000     0.032980000000    -0.0350695  
C519     C      0.729910000000     0.002470000000     0.039210000000    -0.00613957 
C520     C      0.682780000000     0.995710000000     0.999350000000    -0.0937915  
C521     C      0.799350000000     0.011830000000     0.057810000000     0.000508114
C522     C      0.867140000000     0.041960000000     0.059170000000    -0.0829577  
C523     C      0.769380000000     0.989940000000     0.073870000000    -0.0349625  
C524     C      0.898490000000     0.039930000000     0.057530000000     0.0694534  
C525     C      0.867670000000     0.981620000000     0.071220000000     0.0642449  
C526     C      0.735080000000     0.985180000000     0.064610000000    -0.0311767  
C527     C      0.693130000000     0.996280000000     0.028740000000     0.0523515  
C528     C      0.834570000000     0.012500000000     0.064430000000     0.0452209  
C529     C      0.082060000000     0.914070000000     0.886530000000    -0.0731436  
C530     C      0.300700000000     0.943930000000     0.956490000000     0.0813874  
C531     C      0.317490000000     0.973270000000     0.910840000000     0.079163   
C532     C      0.264310000000     0.931400000000     0.947980000000    -0.0877849  
C533     C      0.190930000000     0.924040000000     0.933690000000    -0.0322096  
C534     C      0.156830000000     0.920600000000     0.926310000000    -0.0351817  
C535     C      0.215110000000     0.931160000000     0.912400000000    -0.00400239 
C536     C      0.281350000000     0.962530000000     0.902090000000    -0.0897367  
C537     C      0.146190000000     0.925060000000     0.897590000000    -0.00192361 
C538     C      0.129650000000     0.968920000000     0.897130000000    -0.0889257  
C539     C      0.168660000000     0.929450000000     0.876040000000    -0.0356119  
C540     C      0.104050000000     0.977590000000     0.902010000000     0.069804   
C541     C      0.056670000000     0.924540000000     0.889860000000     0.047929   
C542     C      0.202520000000     0.931770000000     0.883350000000    -0.0314234  
C543     C      0.253880000000     0.941100000000     0.920630000000     0.0544462  
C544     C      0.118780000000     0.936010000000     0.892090000000     0.0441237  
C545     C      0.927700000000     0.782180000000     0.995410000000    -0.076331   
C546     C      0.958110000000     0.611180000000     0.999170000000     0.072585   
C547     C      0.933130000000     0.602940000000     0.951320000000     0.0709434  
C548     C      0.956490000000     0.640730000000     0.998310000000    -0.095663   
C549     C      0.977050000000     0.713150000000     0.976650000000    -0.0367769  
C550     C      0.978330000000     0.743880000000     0.977680000000    -0.0387464  
C551     C      0.943940000000     0.684220000000     0.972130000000    -0.00613918 
C552     C      0.930560000000     0.632330000000     0.949910000000    -0.0939046  
C553     C      0.946470000000     0.746040000000     0.974640000000    -0.00123454 
C554     C      0.971730000000     0.806660000000     0.959510000000    -0.0868003  
C555     C      0.913290000000     0.717130000000     0.969910000000    -0.0348359  
C556     C      0.974250000000     0.837570000000     0.961830000000     0.0773037  
C557     C      0.930800000000     0.813750000000     0.997510000000     0.0521904  
C558     C      0.912070000000     0.686360000000     0.968390000000    -0.0324785  
C559     C      0.942970000000     0.651660000000     0.973470000000     0.0515626  
C560     C      0.948270000000     0.778630000000     0.976340000000     0.046861   
C561     C      0.041730000000     0.185230000000     0.003560000000    -0.0776531  
C562     C      0.056090000000     0.376130000000     0.961800000000     0.0772011  
C563     C      0.044100000000     0.358410000000     0.010840000000     0.0818203  
C564     C      0.069780000000     0.354420000000     0.960730000000    -0.0930326  
C565     C      0.063710000000     0.287680000000     0.956610000000    -0.0317625  
C566     C      0.063080000000     0.257240000000     0.955590000000    -0.0335836  
C567     C      0.075470000000     0.304400000000     0.981950000000    -0.00641777 
C568     C      0.056610000000     0.335530000000     0.010270000000    -0.0884     
C569     C      0.073740000000     0.242660000000     0.979970000000    -0.00506092 
C570     C      0.067760000000     0.192910000000     0.958570000000    -0.0910587  
C571     C      0.088390000000     0.260560000000     0.004500000000    -0.0333971  
C572     C      0.051690000000     0.158180000000     0.958350000000     0.0743247  
C573     C      0.024690000000     0.150460000000     0.002370000000     0.0586012  
C574     C      0.089460000000     0.291330000000     0.005430000000    -0.0313704  
C575     C      0.068670000000     0.332650000000     0.984710000000     0.0522186  
C576     C      0.062880000000     0.206680000000     0.981400000000     0.0467306  
H1       H      0.025030000000     0.006060000000     0.918730000000     0.20627    
H2       H      0.948520000000     0.039600000000     0.980160000000     0.212853   
H3       H      0.916740000000     0.907570000000     0.987120000000     0.208828   
H4       H      0.044010000000     0.997070000000     0.035660000000     0.207061   
H5       H      0.926350000000     0.034870000000     0.904900000000     0.146178   
H6       H      0.878890000000     0.013660000000     0.973690000000     0.202266   
H7       H      0.847180000000     0.912900000000     0.006190000000     0.156374   
H8       H      0.903440000000     0.891980000000     0.044310000000     0.213314   
H9       H      0.031680000000     0.916420000000     0.033130000000     0.146068   
H10      H      0.088690000000     0.976930000000     0.022920000000     0.210332   
H11      H      0.100810000000     0.055790000000     0.935110000000     0.129835   
H12      H      0.060330000000     0.080100000000     0.911440000000     0.198596   
H13      H      0.931720000000     0.890560000000     0.071370000000     0.221413   
H14      H      0.100170000000     0.971620000000     0.991860000000     0.212208   
H15      H      0.035670000000     0.098900000000     0.900060000000     0.224362   
H16      H      0.876080000000     0.999500000000     0.941890000000     0.200396   
H17      H      0.903940000000     0.924620000000     0.468450000000     0.207285   
H18      H      0.018360000000     0.031120000000     0.418750000000     0.198076   
H19      H      0.996910000000     0.034710000000     0.529970000000     0.198666   
H20      H      0.038950000000     0.945980000000     0.505440000000     0.206395   
H21      H      0.947830000000     0.032440000000     0.399190000000     0.134966   
H22      H      0.007690000000     0.084730000000     0.412910000000     0.19944    
H23      H      0.071600000000     0.100370000000     0.505800000000     0.150426   
H24      H      0.064870000000     0.062500000000     0.553510000000     0.208458   
H25      H      0.024600000000     0.938880000000     0.572400000000     0.143343   
H26      H      0.998840000000     0.883540000000     0.532570000000     0.19624    
H27      H      0.911790000000     0.863650000000     0.456330000000     0.132077   
H28      H      0.909790000000     0.903050000000     0.413010000000     0.200254   
H29      H      0.062660000000     0.036510000000     0.582430000000     0.220671   
H30      H      0.965700000000     0.882010000000     0.549820000000     0.204766   
H31      H      0.909730000000     0.926490000000     0.382790000000     0.22428    
H32      H      0.029400000000     0.115980000000     0.434510000000     0.217805   
H33      H      0.941530000000     0.441500000000     0.043710000000     0.199316   
H34      H      0.925110000000     0.440090000000     0.926750000000     0.198262   
H35      H      0.012180000000     0.559850000000     0.973110000000     0.199035   
H36      H      0.055590000000     0.466150000000     0.985990000000     0.21599    
H37      H      0.851220000000     0.391760000000     0.949690000000     0.138667   
H38      H      0.883180000000     0.492930000000     0.927730000000     0.208129   
H39      H      0.011940000000     0.573210000000     0.912320000000     0.133572   
H40      H      0.078190000000     0.576150000000     0.926020000000     0.200008   
H41      H      0.095780000000     0.525120000000     0.029780000000     0.167274   
H42      H      0.070620000000     0.438420000000     0.052980000000     0.178936   
H43      H      0.990580000000     0.384680000000     0.064750000000     0.16116    
H44      H      0.878750000000     0.375610000000     0.036490000000     0.209848   
H45      H      0.104110000000     0.597270000000     0.953670000000     0.21349    
H47      H      0.848730000000     0.363000000000     0.008490000000     0.204918   
H48      H      0.893990000000     0.483970000000     0.898060000000     0.201755   
H49      H      0.924220000000     0.460700000000     0.535310000000     0.198894   
H50      H      0.927790000000     0.453790000000     0.420870000000     0.200314   
H51      H      0.035020000000     0.562410000000     0.470600000000     0.200519   
H52      H      0.029450000000     0.440920000000     0.499870000000     0.208832   
H53      H      0.877520000000     0.467140000000     0.423020000000     0.132373   
H54      H      0.922370000000     0.535490000000     0.407120000000     0.2051     
H55      H      0.051830000000     0.563980000000     0.410670000000     0.146626   
H56      H      0.121780000000     0.574140000000     0.470300000000     0.207695   
H57      H      0.095390000000     0.503650000000     0.536840000000     0.170699   
H58      H      0.044840000000     0.442330000000     0.558830000000     0.2182     
H59      H      0.907370000000     0.387320000000     0.550560000000     0.135607   
H60      H      0.854980000000     0.384190000000     0.510420000000     0.161784   
H61      H      0.133860000000     0.544750000000     0.481160000000     0.212167   
H62      H      0.011860000000     0.404310000000     0.569280000000     0.220001   
H64      H      0.930040000000     0.517940000000     0.381490000000     0.202273   
H65      H      0.465170000000     0.939260000000     0.914910000000     0.209741   
H66      H      0.436000000000     0.922290000000     0.027740000000     0.202598   
H67      H      0.564180000000     0.026470000000     0.992350000000     0.19395    
H68      H      0.441580000000     0.031940000000     0.956840000000     0.199143   
H69      H      0.414080000000     0.846410000000     0.000280000000     0.145317   
H70      H      0.509620000000     0.905640000000     0.040850000000     0.210367   
H71      H      0.562290000000     0.030180000000     0.051710000000     0.12694    
H72      H      0.573850000000     0.085170000000     0.018830000000     0.18771    
H73      H      0.518510000000     0.091750000000     0.924020000000     0.139711   
H74      H      0.467810000000     0.054240000000     0.885090000000     0.199472   
H75      H      0.382000000000     0.953360000000     0.882190000000     0.16997    
H76      H      0.396670000000     0.878800000000     0.917310000000     0.228221   
H77      H      0.564720000000     0.114230000000     0.000820000000     0.203931   
H78      H      0.422770000000     0.033770000000     0.881400000000     0.204951   
H79      H      0.395660000000     0.847640000000     0.940620000000     0.213307   
H80      H      0.499610000000     0.915540000000     0.070400000000     0.20528    
H81      H      0.410500000000     0.959300000000     0.426990000000     0.208388   
H82      H      0.457440000000     0.976630000000     0.539690000000     0.205034   
H83      H      0.516840000000     0.927280000000     0.475840000000     0.213511   
H84      H      0.547310000000     0.058100000000     0.452140000000     0.200168   
H85      H      0.349820000000     0.932290000000     0.516940000000     0.150087   
H86      H      0.429050000000     0.895890000000     0.559940000000     0.2053     
H87      H      0.560640000000     0.955070000000     0.543650000000     0.140791   
H88      H      0.600640000000     0.975780000000     0.495980000000     0.204142   
H89      H      0.597140000000     0.044740000000     0.416830000000     0.132803   
H90      H      0.539430000000     0.057910000000     0.387100000000     0.192094   
H91      H      0.421200000000     0.037680000000     0.424890000000     0.144046   
H92      H      0.358550000000     0.969720000000     0.446500000000     0.206398   
H93      H      0.587140000000     0.953860000000     0.467060000000     0.204224   
H94      H      0.509320000000     0.070490000000     0.374780000000     0.214319   
H95      H      0.372680000000     0.000090000000     0.468740000000     0.204929   
H96      H      0.466700000000     0.900330000000     0.578520000000     0.215188   
H97      H      0.435460000000     0.472560000000     0.028860000000     0.203186   
H98      H      0.426680000000     0.453100000000     0.914940000000     0.193793   
H99      H      0.543880000000     0.562850000000     0.956100000000     0.207281   
H100     H      0.528060000000     0.438590000000     0.993710000000     0.205182   
H101     H      0.358610000000     0.448640000000     0.922830000000     0.133699   
H102     H      0.425370000000     0.531290000000     0.895270000000     0.213654   
H103     H      0.557050000000     0.553750000000     0.899350000000     0.139587   
H104     H      0.621020000000     0.559390000000     0.942840000000     0.197356   
H105     H      0.596570000000     0.500650000000     0.026980000000     0.139828   
H106     H      0.528900000000     0.420000000000     0.056730000000     0.210769   
H107     H      0.411270000000     0.408890000000     0.049730000000     0.135414   
H108     H      0.345630000000     0.411200000000     0.006480000000     0.200043   
H109     H      0.638070000000     0.546050000000     0.972070000000     0.200912   
H110     H      0.542450000000     0.457550000000     0.068520000000     0.204915   
H111     H      0.328590000000     0.422670000000     0.976150000000     0.196887   
H112     H      0.443160000000     0.526230000000     0.867540000000     0.208635   
H113     H      0.433080000000     0.451560000000     0.530870000000     0.197157   
H114     H      0.423880000000     0.468110000000     0.413720000000     0.194158   
H115     H      0.525710000000     0.573330000000     0.472590000000     0.194602   
H116     H      0.542120000000     0.462150000000     0.473570000000     0.202848   
H117     H      0.365060000000     0.478320000000     0.447030000000     0.143889   
H118     H      0.402370000000     0.514570000000     0.396380000000     0.197047   
H119     H      0.539280000000     0.593440000000     0.420540000000     0.133504   
H120     H      0.629230000000     0.589580000000     0.465060000000     0.200384   
H121     H      0.623390000000     0.530290000000     0.480250000000     0.14136    
H122     H      0.556610000000     0.435590000000     0.528100000000     0.200526   
H123     H      0.429450000000     0.382280000000     0.530900000000     0.130848   
H124     H      0.369870000000     0.385960000000     0.512480000000     0.188655   
H125     H      0.599590000000     0.601180000000     0.449050000000     0.200872   
H126     H      0.556730000000     0.458120000000     0.553500000000     0.206741   
H127     H      0.337540000000     0.387570000000     0.489830000000     0.204891   
H128     H      0.426130000000     0.556490000000     0.391810000000     0.21791    
H129     H      0.493880000000     0.430420000000     0.609600000000     0.0272918  
H130     H      0.462070000000     0.494300000000     0.833300000000     0.0207025  
H131     H      0.518870000000     0.445210000000     0.706290000000     0.0401897  
H132     H      0.420530000000     0.453240000000     0.745760000000     0.0391632  
H133     H      0.458620000000     0.489680000000     0.783170000000     0.0542788  
H134     H      0.425860000000     0.460230000000     0.693970000000     0.0392516  
H135     H      0.476070000000     0.404600000000     0.799070000000     0.0639192  
H136     H      0.487620000000     0.419450000000     0.660890000000     0.0549277  
H137     H      0.470140000000     0.504360000000     0.660800000000     0.0551255  
H138     H      0.513720000000     0.438470000000     0.758200000000     0.0447576  
H139     H      0.476180000000     0.514650000000     0.609450000000     0.0274741  
H140     H      0.433550000000     0.360920000000     0.867260000000     0.147821   
H141     H      0.494360000000     0.559650000000     0.091850000000     0.0396834  
H142     H      0.464350000000     0.455490000000     0.336220000000     0.0277486  
H143     H      0.529860000000     0.564840000000     0.191450000000     0.0449243  
H144     H      0.429660000000     0.469690000000     0.243620000000     0.0411728  
H145     H      0.462960000000     0.460070000000     0.284720000000     0.0558793  
H146     H      0.430490000000     0.470850000000     0.191760000000     0.0423587  
H147     H      0.501590000000     0.566030000000     0.283130000000     0.0678289  
H148     H      0.491360000000     0.565520000000     0.142290000000     0.060126   
H149     H      0.476400000000     0.465610000000     0.163980000000     0.0583882  
H150     H      0.529830000000     0.563370000000     0.243590000000     0.0489817  
H151     H      0.479920000000     0.460500000000     0.114410000000     0.0328358  
H152     H      0.566160000000     0.598750000000     0.371110000000     0.166468   
H153     H      0.441570000000     0.615820000000     0.436100000000     0.0265816  
H154     H      0.389020000000     0.819480000000     0.466880000000     0.0275894  
H155     H      0.420190000000     0.669580000000     0.538170000000     0.0395805  
H156     H      0.381300000000     0.722940000000     0.454300000000     0.0401008  
H157     H      0.365860000000     0.759550000000     0.471160000000     0.0525833  
H158     H      0.380780000000     0.670980000000     0.449250000000     0.0388904  
H159     H      0.455840000000     0.771970000000     0.529360000000     0.0662612  
H160     H      0.419610000000     0.653990000000     0.441970000000     0.0553681  
H161     H      0.408150000000     0.619210000000     0.532150000000     0.0529977  
H162     H      0.415110000000     0.718020000000     0.544000000000     0.0430638  
H163     H      0.436370000000     0.587010000000     0.526300000000     0.027939   
H164     H      0.515900000000     0.868200000000     0.569230000000     0.160797   
H165     H      0.504860000000     0.354300000000     0.510750000000     0.0238229  
H166     H      0.477110000000     0.117250000000     0.417130000000     0.0288364  
H167     H      0.474630000000     0.246710000000     0.499830000000     0.0390953  
H168     H      0.526020000000     0.238890000000     0.413210000000     0.0437672  
H169     H      0.473140000000     0.168160000000     0.415920000000     0.0568613  
H170     H      0.520600000000     0.288730000000     0.417180000000     0.0408982  
H171     H      0.549620000000     0.199250000000     0.487990000000     0.0688545  
H172     H      0.508840000000     0.304180000000     0.507160000000     0.0546018  
H173     H      0.478720000000     0.307930000000     0.416590000000     0.0549745  
H174     H      0.482190000000     0.197950000000     0.496250000000     0.0414889  
H175     H      0.476910000000     0.358810000000     0.420570000000     0.0286687  
H176     H      0.624030000000     0.188180000000     0.512640000000     0.154483   
H177     H      0.537030000000     0.055780000000     0.599020000000     0.0321521  
H178     H      0.568520000000     0.012560000000     0.852760000000     0.0278288  
H179     H      0.507620000000     0.039240000000     0.691320000000     0.0401222  
H180     H      0.568010000000     0.987070000000     0.758040000000     0.0414364  
H181     H      0.582910000000     0.022100000000     0.802590000000     0.0530715  
H182     H      0.571970000000     0.989300000000     0.706140000000     0.0397275  
H183     H      0.471500000000     0.986110000000     0.776940000000     0.0624619  
H184     H      0.545420000000     0.061950000000     0.650250000000     0.0547593  
H185     H      0.530230000000     0.961370000000     0.666090000000     0.05458    
H186     H      0.504200000000     0.037400000000     0.742940000000     0.0404275  
H187     H      0.522280000000     0.956010000000     0.614980000000     0.0229006  
H188     H      0.424570000000     0.999830000000     0.820760000000     0.145738   
H189     H      0.401180000000     0.977010000000     0.095170000000     0.0280189  
H190     H      0.455670000000     0.921910000000     0.345800000000     0.0292262  
H191     H      0.437380000000     0.005910000000     0.191240000000     0.0420062  
H192     H      0.418330000000     0.902650000000     0.252050000000     0.0406228  
H193     H      0.451090000000     0.919300000000     0.294540000000     0.0535144  
H194     H      0.420010000000     0.904510000000     0.200180000000     0.0405464  
H195     H      0.406810000000     0.986550000000     0.283660000000     0.0614902  
H196     H      0.392340000000     0.972640000000     0.146390000000     0.0565997  
H197     H      0.473820000000     0.942610000000     0.165790000000     0.0552283  
H198     H      0.438110000000     0.005260000000     0.243140000000     0.0413832  
H199     H      0.482800000000     0.947960000000     0.115240000000     0.0233711  
H200     H      0.443680000000     0.045920000000     0.327790000000     0.14465    
H201     H      0.567300000000     0.905650000000     0.930860000000     0.0266717  
H202     H      0.485600000000     0.627670000000     0.978810000000     0.0436627  
H203     H      0.557110000000     0.799760000000     0.960080000000     0.0417723  
H204     H      0.489850000000     0.721280000000     0.884540000000     0.0433468  
H205     H      0.495770000000     0.684310000000     0.971300000000     0.0600469  
H206     H      0.492070000000     0.776100000000     0.880720000000     0.041832   
H207     H      0.534390000000     0.694580000000     0.888500000000     0.0668665  
H208     H      0.577210000000     0.858650000000     0.924160000000     0.055523   
H209     H      0.462350000000     0.793680000000     0.918090000000     0.056021   
H210     H      0.554230000000     0.744680000000     0.964230000000     0.0459747  
H211     H      0.453370000000     0.840000000000     0.925620000000     0.0229     
H212     H      0.515560000000     0.599680000000     0.854880000000     0.162453   
H213     H      0.392930000000     0.060600000000     0.013170000000     0.0255023  
H214     H      0.479620000000     0.337930000000     0.966420000000     0.0355269  
H215     H      0.394040000000     0.156300000000     0.044580000000     0.0417449  
H216     H      0.501470000000     0.256290000000     0.004900000000     0.0398957  
H217     H      0.472800000000     0.282840000000     0.974360000000     0.0547696  
H218     H      0.498790000000     0.202190000000     0.009290000000     0.0389021  
H219     H      0.426820000000     0.268610000000     0.054920000000     0.0647433  
H220     H      0.388900000000     0.111040000000     0.018400000000     0.0549316  
H221     H      0.502440000000     0.162140000000     0.043160000000     0.0534635  
H222     H      0.396020000000     0.211150000000     0.038600000000     0.0439547  
H223     H      0.505720000000     0.112710000000     0.036110000000     0.0227448  
H224     H      0.377220000000     0.325160000000     0.023010000000     0.148941   
H225     H      0.620900000000     0.122730000000     0.527380000000     0.0398154  
H226     H      0.901090000000     0.327300000000     0.442720000000     0.0293118  
H227     H      0.693580000000     0.192220000000     0.451170000000     0.0493839  
H228     H      0.818770000000     0.241360000000     0.493830000000     0.0399823  
H229     H      0.855270000000     0.269530000000     0.452770000000     0.0546651  
H230     H      0.771720000000     0.188360000000     0.515610000000     0.0402364  
H231     H      0.773660000000     0.299860000000     0.437090000000     0.0658945  
H232     H      0.676840000000     0.175620000000     0.520630000000     0.0565111  
H233     H      0.717220000000     0.125910000000     0.475720000000     0.0579683  
H234     H      0.740350000000     0.243870000000     0.428340000000     0.045732   
H235     H      0.661140000000     0.074230000000     0.481620000000     0.0297207  
H236     H      0.835390000000     0.413760000000     0.389040000000     0.159402   
H237     H      0.347260000000     0.832450000000     0.428320000000     0.0269762  
H238     H      0.058300000000     0.633140000000     0.507520000000     0.0288534  
H239     H      0.262540000000     0.738000000000     0.470480000000     0.0384945  
H240     H      0.152250000000     0.739040000000     0.492670000000     0.0394522  
H241     H      0.105380000000     0.687380000000     0.491490000000     0.0530203  
H242     H      0.199610000000     0.788690000000     0.469410000000     0.0406639  
H243     H      0.184440000000     0.659980000000     0.530950000000     0.0583931  
H244     H      0.290810000000     0.780210000000     0.434390000000     0.0537963  
H245     H      0.253940000000     0.830310000000     0.483090000000     0.056408   
H246     H      0.213100000000     0.686860000000     0.490140000000     0.0385288  
H247     H      0.308310000000     0.881290000000     0.475090000000     0.0241733  
H248     H      0.172290000000     0.590320000000     0.525520000000     0.144203   
H249     H      0.894600000000     0.562730000000     0.506160000000     0.0266526  
H250     H      0.585590000000     0.449520000000     0.439900000000     0.0222691  
H251     H      0.797040000000     0.552800000000     0.451480000000     0.0415786  
H252     H      0.681860000000     0.489290000000     0.500030000000     0.0394861  
H253     H      0.643920000000     0.457900000000     0.459450000000     0.0540219  
H254     H      0.737220000000     0.494670000000     0.525330000000     0.0387343  
H255     H      0.692700000000     0.560420000000     0.423090000000     0.0557997  
H256     H      0.843180000000     0.572930000000     0.495400000000     0.0539366  
H257     H      0.771440000000     0.467120000000     0.513810000000     0.0582074  
H258     H      0.741500000000     0.547230000000     0.425960000000     0.0448282  
H259     H      0.822680000000     0.457970000000     0.523620000000     0.031362   
H260     H      0.657170000000     0.604140000000     0.413790000000     0.14218    
H261     H      0.386810000000     0.537860000000     0.538350000000     0.0246364  
H262     H      0.076460000000     0.418940000000     0.471420000000     0.0245417  
H263     H      0.289770000000     0.521650000000     0.481830000000     0.0416898  
H264     H      0.174360000000     0.454240000000     0.529480000000     0.0423326  
H265     H      0.133580000000     0.425980000000     0.492740000000     0.0537324  
H266     H      0.230040000000     0.459640000000     0.554340000000     0.0409859  
H267     H      0.187170000000     0.524490000000     0.447980000000     0.0549538  
H268     H      0.331870000000     0.542470000000     0.534170000000     0.0552694  
H269     H      0.269240000000     0.435000000000     0.532280000000     0.0551217  
H270     H      0.234320000000     0.514500000000     0.455950000000     0.0433884  
H271     H      0.324380000000     0.431770000000     0.534460000000     0.0209019  
H272     H      0.156630000000     0.571450000000     0.426440000000     0.143483   
H273     H      0.000370000000     0.448840000000     0.848770000000     0.0303707  
H274     H      0.961740000000     0.528360000000     0.604630000000     0.0264742  
H275     H      0.039290000000     0.508160000000     0.762030000000     0.0409122  
H276     H      0.933170000000     0.492130000000     0.697090000000     0.0400949  
H277     H      0.962140000000     0.532620000000     0.655500000000     0.054163   
H278     H      0.927730000000     0.484180000000     0.749040000000     0.0382208  
H279     H      0.022450000000     0.479520000000     0.673450000000     0.0586641  
H280     H      0.003800000000     0.456570000000     0.796950000000     0.0593105  
H281     H      0.953920000000     0.519160000000     0.792290000000     0.0553755  
H282     H      0.045130000000     0.517000000000     0.710280000000     0.0458714  
H283     H      0.950830000000     0.511200000000     0.843810000000     0.0253871  
H284     H      0.065970000000     0.462230000000     0.656260000000     0.152312   
H285     H      0.992830000000     0.424640000000     0.359750000000     0.031603   
H286     H      0.966020000000     0.504190000000     0.113590000000     0.0443313  
H287     H      0.040540000000     0.473380000000     0.268120000000     0.0471607  
H288     H      0.934780000000     0.454930000000     0.201820000000     0.0434876  
H289     H      0.961930000000     0.497990000000     0.164710000000     0.0584898  
H290     H      0.929230000000     0.449410000000     0.253590000000     0.0422709  
H291     H      0.032240000000     0.454730000000     0.174530000000     0.0651445  
H292     H      0.994090000000     0.420820000000     0.308680000000     0.0601005  
H293     H      0.970660000000     0.502610000000     0.289160000000     0.0587582  
H294     H      0.047120000000     0.480940000000     0.216500000000     0.0471307  
H295     H      0.970450000000     0.506620000000     0.339800000000     0.0230586  
H296     H      0.087690000000     0.519360000000     0.102070000000     0.151412   
H297     H      0.614230000000     0.134140000000     0.942050000000     0.0228426  
H298     H      0.893010000000     0.348090000000     0.897760000000     0.0195875  
H299     H      0.717420000000     0.213320000000     0.897530000000     0.0381624  
H300     H      0.820720000000     0.205860000000     0.950160000000     0.0442224  
H301     H      0.842130000000     0.293560000000     0.886480000000     0.0517435  
H302     H      0.761470000000     0.155610000000     0.948520000000     0.0396212  
H303     H      0.844070000000     0.256770000000     0.974960000000     0.0573221  
H304     H      0.673490000000     0.180830000000     0.934640000000     0.0517814  
H305     H      0.710160000000     0.112620000000     0.918070000000     0.052746   
H306     H      0.776520000000     0.263590000000     0.899390000000     0.0380646  
H307     H      0.649530000000     0.065580000000     0.925500000000     0.0259546  
H308     H      0.859120000000     0.301350000000     0.021390000000     0.144417   
H309     H      0.122850000000     0.600650000000     0.044540000000     0.0366907  
H310     H      0.324910000000     0.880730000000     0.044990000000     0.0247698  
H311     H      0.190160000000     0.698220000000     0.006040000000     0.0433023  
H312     H      0.199510000000     0.796100000000     0.048250000000     0.0407643  
H313     H      0.267930000000     0.830770000000     0.056690000000     0.0538319  
H314     H      0.147480000000     0.739910000000     0.058370000000     0.0415878  
H315     H      0.252770000000     0.804980000000     0.969750000000     0.0574281  
H316     H      0.169950000000     0.657880000000     0.048100000000     0.0594553  
H317     H      0.090500000000     0.691030000000     0.032850000000     0.0542754  
H318     H      0.241530000000     0.752950000000     0.996810000000     0.0389426  
H319     H      0.043020000000     0.632020000000     0.030810000000     0.024427   
H320     H      0.304750000000     0.812820000000     0.933630000000     0.147821   
H321     H      0.626230000000     0.504250000000     0.933350000000     0.0218833  
H322     H      0.820620000000     0.406610000000     0.031720000000     0.0252723  
H323     H      0.725440000000     0.493400000000     0.956900000000     0.0374543  
H324     H      0.714020000000     0.416810000000     0.044180000000     0.0420075  
H325     H      0.763010000000     0.404500000000     0.023060000000     0.0535643  
H326     H      0.659620000000     0.414600000000     0.019320000000     0.0385854  
H327     H      0.811540000000     0.507950000000     0.040130000000     0.0603108  
H328     H      0.680120000000     0.505510000000     0.955660000000     0.0510008  
H329     H      0.619350000000     0.398980000000     0.979550000000     0.0531848  
H330     H      0.779310000000     0.496940000000     0.983130000000     0.0406929  
H331     H      0.564840000000     0.399650000000     0.959150000000     0.0277852  
H332     H      0.890700000000     0.557260000000     0.025830000000     0.147309   
H333     H      0.335820000000     0.477430000000     0.004070000000     0.0233175  
H334     H      0.091930000000     0.459140000000     0.895580000000     0.0270002  
H335     H      0.256950000000     0.458290000000     0.928900000000     0.0360165  
H336     H      0.246590000000     0.560010000000     0.895570000000     0.0432361  
H337     H      0.147880000000     0.464890000000     0.879940000000     0.0526     
H338     H      0.304660000000     0.566230000000     0.914570000000     0.0406134  
H339     H      0.208630000000     0.538830000000     0.939810000000     0.0667337  
H340     H      0.285250000000     0.474320000000     0.973860000000     0.052917   
H341     H      0.357660000000     0.561740000000     0.921790000000     0.0544142  
H342     H      0.198350000000     0.452500000000     0.911980000000     0.0392017  
H343     H      0.408150000000     0.564750000000     0.953730000000     0.0279167  
H344     H      0.129870000000     0.479230000000     0.997010000000     0.146331   
H345     H      0.560980000000     0.635600000000     0.532880000000     0.0244546  
H346     H      0.849710000000     0.840070000000     0.490290000000     0.0256372  
H347     H      0.661320000000     0.735800000000     0.560590000000     0.0404703  
H348     H      0.771910000000     0.743170000000     0.528550000000     0.0406404  
H349     H      0.793640000000     0.790290000000     0.497230000000     0.0544426  
H350     H      0.718610000000     0.689880000000     0.531960000000     0.0376735  
H351     H      0.776430000000     0.829520000000     0.568720000000     0.0629841  
H352     H      0.612180000000     0.690980000000     0.540250000000     0.0541798  
H353     H      0.680730000000     0.645360000000     0.558270000000     0.0529154  
H354     H      0.714960000000     0.790880000000     0.553920000000     0.0423596  
H355     H      0.630230000000     0.592110000000     0.547210000000     0.0216559  
H356     H      0.813870000000     0.919520000000     0.547480000000     0.147845   
H357     H      0.410250000000     0.346970000000     0.402900000000     0.026684   
H358     H      0.122690000000     0.134750000000     0.458920000000     0.0273198  
H359     H      0.285990000000     0.247320000000     0.368690000000     0.0421916  
H360     H      0.244360000000     0.197900000000     0.466360000000     0.043683   
H361     H      0.179820000000     0.183080000000     0.450950000000     0.0551822  
H362     H      0.296860000000     0.253500000000     0.460210000000     0.040966   
H363     H      0.206920000000     0.129330000000     0.399000000000     0.0659088  
H364     H      0.366660000000     0.287280000000     0.398480000000     0.0554404  
H365     H      0.283070000000     0.304480000000     0.422550000000     0.0554253  
H366     H      0.232810000000     0.191170000000     0.374760000000     0.0442984  
H367     H      0.326140000000     0.362830000000     0.426550000000     0.0242281  
H368     H      0.103160000000     0.070890000000     0.367080000000     0.145414   
H369     H      0.531100000000     0.884040000000     0.427960000000     0.0305399  
H370     H      0.829310000000     0.976040000000     0.483760000000     0.0368142  
H371     H      0.644820000000     0.908880000000     0.459930000000     0.0416859  
H372     H      0.731120000000     0.953920000000     0.382680000000     0.0460175  
H373     H      0.768230000000     0.965330000000     0.473300000000     0.0565817  
H374     H      0.670570000000     0.947020000000     0.372100000000     0.0422744  
H375     H      0.761690000000     0.918970000000     0.397710000000     0.066768   
H376     H      0.584940000000     0.877860000000     0.429490000000     0.0586267  
H377     H      0.642580000000     0.978460000000     0.389390000000     0.0575993  
H378     H      0.705310000000     0.915600000000     0.470500000000     0.0414895  
H379     H      0.588970000000     0.983900000000     0.388480000000     0.0269356  
H380     H      0.825060000000     0.880000000000     0.437660000000     0.145568   
H381     H      0.382060000000     0.995960000000     0.564160000000     0.0234272  
H382     H      0.155070000000     0.004260000000     0.476260000000     0.059884   
H383     H      0.317520000000     0.050300000000     0.585830000000     0.0404245  
H384     H      0.278520000000     0.072380000000     0.485980000000     0.045032   
H385     H      0.218010000000     0.021700000000     0.485610000000     0.0647683  
H386     H      0.339120000000     0.079460000000     0.496240000000     0.0402728  
H387     H      0.220680000000     0.070690000000     0.558280000000     0.0628981  
H388     H      0.337070000000     0.011930000000     0.569410000000     0.0557931  
H389     H      0.402250000000     0.107970000000     0.523980000000     0.0540891  
H390     H      0.256770000000     0.042760000000     0.575560000000     0.0423645  
H391     H      0.447870000000     0.091210000000     0.520050000000     0.0298913  
H392     H      0.140480000000     0.028990000000     0.591770000000     0.150716   
H393     H      0.006490000000     0.628220000000     0.412200000000     0.030788   
H394     H      0.978330000000     0.854580000000     0.430960000000     0.0265909  
H395     H      0.061370000000     0.743490000000     0.483390000000     0.0381546  
H396     H      0.009710000000     0.782200000000     0.397040000000     0.0455746  
H397     H      0.983370000000     0.806210000000     0.424150000000     0.0521952  
H398     H      0.999400000000     0.724710000000     0.402290000000     0.0354062  
H399     H      0.095640000000     0.857880000000     0.450980000000     0.0661469  
H400     H      0.024310000000     0.687350000000     0.404240000000     0.056681   
H401     H      0.010120000000     0.688280000000     0.493410000000     0.0538712  
H402     H      0.070590000000     0.800770000000     0.478540000000     0.0427553  
H403     H      0.992860000000     0.629320000000     0.500820000000     0.0292223  
H404     H      0.086350000000     0.910170000000     0.507980000000     0.141979   
H405     H      0.965110000000     0.333650000000     0.459510000000     0.0289486  
H406     H      0.928260000000     0.067540000000     0.545880000000     0.0241155  
H407     H      0.990150000000     0.250550000000     0.487260000000     0.0398384  
H408     H      0.891200000000     0.155040000000     0.540220000000     0.0407488  
H409     H      0.926380000000     0.118390000000     0.553800000000     0.0540491  
H410     H      0.899950000000     0.212200000000     0.540930000000     0.0382889  
H411     H      0.925750000000     0.143510000000     0.462670000000     0.0650119  
H412     H      0.955580000000     0.277270000000     0.464950000000     0.0551349  
H413     H      0.942080000000     0.271860000000     0.555270000000     0.0535542  
H414     H      0.981000000000     0.194120000000     0.486170000000     0.0437979  
H415     H      0.951150000000     0.329120000000     0.549050000000     0.0242501  
H416     H      0.896800000000     0.040050000000     0.420340000000     0.163083   
H417     H      0.004930000000     0.973800000000     0.622760000000     0.0298086  
H418     H      0.926090000000     0.933800000000     0.849180000000     0.0392443  
H419     H      0.000430000000     0.016650000000     0.700490000000     0.0448464  
H420     H      0.888790000000     0.942940000000     0.751790000000     0.0421327  
H421     H      0.916860000000     0.930050000000     0.797980000000     0.0583979  
H422     H      0.889040000000     0.939090000000     0.700130000000     0.044855   
H423     H      0.976150000000     0.037240000000     0.784490000000     0.0612105  
H424     H      0.997180000000     0.973050000000     0.672640000000     0.0544794  
H425     H      0.896840000000     0.973770000000     0.650580000000     0.059466   
H426     H      0.000620000000     0.019750000000     0.751490000000     0.0450585  
H427     H      0.905140000000     0.974190000000     0.599920000000     0.0417051  
H428     H      0.042470000000     0.076640000000     0.804570000000     0.149932   
H429     H      0.007440000000     0.939000000000     0.119250000000     0.0319607  
H430     H      0.990950000000     0.013230000000     0.341070000000     0.0241268  
H431     H      0.993670000000     0.934340000000     0.213460000000     0.0388556  
H432     H      0.061580000000     0.043670000000     0.256340000000     0.0452758  
H433     H      0.998420000000     0.016530000000     0.290400000000     0.0545828  
H434     H      0.058650000000     0.042640000000     0.204350000000     0.0425577  
H435     H      0.058920000000     0.963920000000     0.308100000000     0.0702362  
H436     H      0.018690000000     0.940190000000     0.170700000000     0.0593987  
H437     H      0.019500000000     0.035260000000     0.164940000000     0.0593996  
H438     H      0.999060000000     0.935730000000     0.265460000000     0.0413337  
H439     H      0.010540000000     0.034220000000     0.113650000000     0.0367176  
H440     H      0.003280000000     0.905300000000     0.375530000000     0.147183   
H441     H      0.808820000000     0.891970000000     0.944260000000     0.0291098  
H442     H      0.649430000000     0.600920000000     0.997270000000     0.023689   
H443     H      0.742960000000     0.796620000000     0.992690000000     0.0440172  
H444     H      0.700620000000     0.694480000000     0.941710000000     0.0430357  
H445     H      0.696190000000     0.655810000000     0.983370000000     0.0531803  
H446     H      0.748070000000     0.747940000000     0.921840000000     0.0412354  
H447     H      0.634230000000     0.698530000000     0.007500000000     0.0637954  
H448     H      0.755030000000     0.838690000000     0.951970000000     0.0570189  
H449     H      0.811950000000     0.788070000000     0.933270000000     0.0559425  
H450     H      0.695770000000     0.743170000000     0.012690000000     0.0481219  
H451     H      0.865580000000     0.842270000000     0.925220000000     0.0315493  
H452     H      0.588370000000     0.614290000000     0.072630000000     0.149895   
H453     H      0.390910000000     0.321060000000     0.951790000000     0.0336364  
H454     H      0.100600000000     0.129860000000     0.029740000000     0.0315951  
H455     H      0.282540000000     0.215730000000     0.959810000000     0.0391882  
H456     H      0.216790000000     0.222720000000     0.037250000000     0.0421163  
H457     H      0.155950000000     0.182160000000     0.022820000000     0.0535821  
H458     H      0.265230000000     0.273930000000     0.015430000000     0.0405834  
H459     H      0.214220000000     0.127390000000     0.025430000000     0.0598987  
H460     H      0.344640000000     0.265330000000     0.969090000000     0.0557262  
H461     H      0.270040000000     0.303580000000     0.966940000000     0.052786   
H462     H      0.233870000000     0.164370000000     0.981510000000     0.0415873  
H463     H      0.316430000000     0.358340000000     0.950260000000     0.017408   
H464     H      0.180710000000     0.062020000000     0.998210000000     0.149213   
H465     H      0.641300000000     0.990110000000     0.967220000000     0.0262778  
H466     H      0.922410000000     0.062650000000     0.051030000000     0.0507914  
H467     H      0.712470000000     0.967090000000     0.076950000000     0.0411527  
H468     H      0.816700000000     0.046770000000     0.019810000000     0.0425029  
H469     H      0.867920000000     0.066000000000     0.054280000000     0.0612058  
H470     H      0.757280000000     0.039740000000     0.004530000000     0.0393074  
H471     H      0.811680000000     0.959720000000     0.079040000000     0.0652768  
H472     H      0.701220000000     0.999340000000     0.983500000000     0.0536889  
H473     H      0.674620000000     0.991260000000     0.071070000000     0.0556044  
H474     H      0.772220000000     0.975790000000     0.093250000000     0.0453872  
H475     H      0.615110000000     0.980810000000     0.054430000000     0.0294959  
H476     H      0.910800000000     0.930970000000     0.098400000000     0.157602   
H477     H      0.337680000000     0.989580000000     0.895710000000     0.0185917  
H478     H      0.114050000000     0.002780000000     0.908270000000     0.0297243  
H479     H      0.219400000000     0.935820000000     0.866120000000     0.0419304  
H480     H      0.140200000000     0.917980000000     0.943320000000     0.0425341  
H481     H      0.157960000000     0.986980000000     0.900230000000     0.0567571  
H482     H      0.198920000000     0.923710000000     0.956280000000     0.0392915  
H483     H      0.073420000000     0.889250000000     0.880120000000     0.0641374  
H484     H      0.275440000000     0.971790000000     0.881050000000     0.0545016  
H485     H      0.244690000000     0.914030000000     0.963010000000     0.0570597  
H486     H      0.161160000000     0.933470000000     0.853730000000     0.0438718  
H487     H      0.307170000000     0.935490000000     0.977790000000     0.0327351  
H488     H      0.014550000000     0.941590000000     0.843440000000     0.154141   
H489     H      0.923900000000     0.588720000000     0.932560000000     0.0261628  
H490     H      0.994110000000     0.859060000000     0.949450000000     0.0387803  
H491     H      0.886290000000     0.664140000000     0.965110000000     0.0404657  
H492     H      0.004170000000     0.765860000000     0.981460000000     0.0457148  
H493     H      0.988310000000     0.804780000000     0.944740000000     0.0592795  
H494     H      0.001890000000     0.711860000000     0.979640000000     0.0439021  
H495     H      0.909590000000     0.760440000000     0.008680000000     0.0674963  
H496     H      0.920020000000     0.640380000000     0.930340000000     0.0557347  
H497     H      0.966280000000     0.655250000000     0.016890000000     0.0601221  
H498     H      0.888460000000     0.718420000000     0.967320000000     0.0432343  
H499     H      0.969760000000     0.604230000000     0.018710000000     0.0407615  
H500     H      0.868690000000     0.827830000000     0.988170000000     0.148659   
H501     H      0.033900000000     0.359170000000     0.030700000000     0.0302657  
H502     H      0.056920000000     0.148490000000     0.940590000000     0.0241133  
H503     H      0.099540000000     0.303970000000     0.025010000000     0.0403622  
H504     H      0.051230000000     0.243760000000     0.936540000000     0.0432382  
H505     H      0.083540000000     0.208900000000     0.940810000000     0.0542512  
H506     H      0.052260000000     0.296590000000     0.938180000000     0.0415948  
H507     H      0.036110000000     0.195650000000     0.020520000000     0.065965   
H508     H      0.054940000000     0.319060000000     0.029340000000     0.0602507  
H509     H      0.080050000000     0.353990000000     0.940830000000     0.0536106  
H510     H      0.097050000000     0.249810000000     0.023490000000     0.0406036  
H511     H      0.056710000000     0.391920000000     0.942430000000     0.028313   
H512     H      0.024480000000     0.124020000000     0.062410000000     0.148886   
N1       N      0.472500000000     0.452900000000     0.846680000000    -0.184086   
N2       N      0.485030000000     0.473110000000     0.605510000000    -0.193621   
N3       N      0.484270000000     0.508020000000     0.340250000000    -0.18273    
N4       N      0.487060000000     0.509600000000     0.099170000000    -0.190449   
N5       N      0.435530000000     0.830420000000     0.495570000000    -0.186751   
N6       N      0.440670000000     0.598580000000     0.480680000000    -0.194615   
N7       N      0.514880000000     0.128030000000     0.453870000000    -0.187038   
N8       N      0.491000000000     0.360490000000     0.465920000000    -0.195442   
N9       N      0.511620000000     0.993890000000     0.844270000000    -0.179784   
N10      N      0.528430000000     0.005260000000     0.602930000000    -0.189615   
N11      N      0.436070000000     0.957100000000     0.344710000000    -0.181215   
N12      N      0.442860000000     0.963180000000     0.101200000000    -0.190722   
N13      N      0.506100000000     0.627740000000     0.938910000000    -0.178314   
N14      N      0.509720000000     0.876170000000     0.929540000000    -0.191364   
N15      N      0.457090000000     0.336560000000     0.005760000000    -0.179538   
N16      N      0.449890000000     0.083590000000     0.022770000000    -0.191667   
N17      N      0.864070000000     0.346830000000     0.435780000000    -0.185787   
N18      N      0.635770000000     0.095470000000     0.502880000000    -0.190482   
N19      N      0.093700000000     0.613980000000     0.525140000000    -0.185816   
N20      N      0.332710000000     0.860410000000     0.452230000000    -0.193451   
N21      N      0.604920000000     0.500370000000     0.421770000000    -0.18834    
N22      N      0.862130000000     0.509480000000     0.514320000000    -0.192239   
N23      N      0.098630000000     0.467650000000     0.448330000000    -0.187976   
N24      N      0.359380000000     0.484970000000     0.534400000000    -0.193852   
N25      N      0.991510000000     0.501300000000     0.609530000000    -0.186214   
N26      N      0.975880000000     0.479810000000     0.850260000000    -0.194473   
N27      N      0.001510000000     0.483250000000     0.113990000000    -0.178735   
N28      N      0.981810000000     0.466020000000     0.353590000000    -0.194225   
N29      N      0.896660000000     0.334130000000     0.942620000000    -0.183075   
N30      N      0.627190000000     0.096000000000     0.934720000000    -0.189113   
N31      N      0.322840000000     0.870430000000     0.001420000000    -0.181232   
N32      N      0.079850000000     0.612540000000     0.036210000000    -0.189956   
N33      N      0.850730000000     0.459470000000     0.037960000000    -0.181695   
N34      N      0.591280000000     0.452370000000     0.946090000000    -0.194505   
N35      N      0.118050000000     0.494430000000     0.927650000000    -0.18186    
N36      N      0.375730000000     0.520600000000     0.980500000000    -0.194847   
N37      N      0.846970000000     0.864660000000     0.525240000000    -0.181976   
N38      N      0.592410000000     0.610400000000     0.538160000000    -0.192358   
N39      N      0.130100000000     0.102400000000     0.433960000000    -0.180738   
N40      N      0.371820000000     0.359050000000     0.416210000000    -0.190943   
N41      N      0.831780000000     0.953690000000     0.447020000000    -0.1809     
N42      N      0.556600000000     0.934830000000     0.409140000000    -0.197531   
N43      N      0.150100000000     0.026770000000     0.511820000000    -0.177294   
N44      N      0.417220000000     0.041940000000     0.540670000000    -0.193345   
N45      N      0.033450000000     0.884450000000     0.445920000000    -0.181151   
N46      N      0.998570000000     0.624180000000     0.457170000000    -0.192309   
N47      N      0.930290000000     0.077670000000     0.500220000000    -0.185117   
N48      N      0.959330000000     0.336040000000     0.503940000000    -0.191691   
N49      N      0.958550000000     0.987690000000     0.847210000000    -0.180081   
N50      N      0.956050000000     0.974910000000     0.607360000000    -0.189362   
N51      N      0.020480000000     0.986590000000     0.354520000000    -0.183237   
N52      N      0.008280000000     0.986540000000     0.112480000000    -0.190506   
N53      N      0.612280000000     0.616650000000     0.007760000000    -0.182888   
N54      N      0.841700000000     0.870860000000     0.935830000000    -0.192278   
N55      N      0.124850000000     0.098580000000     0.029220000000    -0.184093   
N56      N      0.357490000000     0.343990000000     0.951190000000    -0.193788   
N57      N      0.897080000000     0.009270000000     0.059540000000    -0.183547   
N58      N      0.623610000000     0.984890000000     0.009470000000    -0.191727   
N59      N      0.068060000000     0.954150000000     0.902280000000    -0.183878   
N60      N      0.327140000000     0.964400000000     0.937970000000    -0.191841   
N61      N      0.954160000000     0.841250000000     0.980500000000    -0.185397   
N62      N      0.946970000000     0.592560000000     0.975760000000    -0.191953   
N63      N      0.030840000000     0.137070000000     0.980190000000    -0.186746   
N64      N      0.042370000000     0.377440000000     0.986410000000    -0.194049   
O1       O      0.094390000000     0.052010000000     0.005020000000    -0.36085    
O2       O      0.063190000000     0.068150000000     0.029340000000    -0.361181   
O3       O      0.974210000000     0.015290000000     0.888490000000    -0.359537   
O4       O      0.958160000000     0.960070000000     0.891510000000    -0.359821   
O5       O      0.011830000000     0.091040000000     0.955250000000    -0.363525   
O6       O      0.013710000000     0.085650000000     0.003930000000    -0.355057   
O7       O      0.063980000000     0.982290000000     0.936710000000    -0.386733   
O8       O      0.012440000000     0.941220000000     0.917760000000    -0.340018   
O9       O      0.109570000000     0.046560000000     0.952360000000    -0.322567   
O10      O      0.087860000000     0.979550000000     0.002200000000    -0.522176   
O11      O      0.037500000000     0.079950000000     0.909880000000    -0.511947   
O12      O      0.945390000000     0.054490000000     0.914570000000    -0.338069   
O13      O      0.030580000000     0.042160000000     0.974960000000    -0.502445   
O14      O      0.013790000000     0.000980000000     0.936740000000    -0.635762   
O15      O      0.961180000000     0.883480000000     0.005900000000    -0.357566   
O16      O      0.962060000000     0.890480000000     0.957180000000    -0.358381   
O17      O      0.907770000000     0.977670000000     0.032660000000    -0.343369   
O18      O      0.951560000000     0.030430000000     0.039100000000    -0.353026   
O19      O      0.872790000000     0.920290000000     0.956030000000    -0.38367    
O20      O      0.903230000000     0.902670000000     0.932550000000    -0.364139   
O21      O      0.994040000000     0.958750000000     0.071720000000    -0.372591   
O22      O      0.005620000000     0.012940000000     0.068470000000    -0.367407   
O23      O      0.927700000000     0.898560000000     0.052050000000    -0.516871   
O24      O      0.018520000000     0.917590000000     0.048630000000    -0.334341   
O25      O      0.849580000000     0.934900000000     0.998270000000    -0.325679   
O26      O      0.883530000000     0.000410000000     0.962060000000    -0.530852   
O27      O      0.935530000000     0.930660000000     0.985250000000    -0.633519   
O28      O      0.952620000000     0.972630000000     0.023260000000    -0.481231   
O29      O      0.008670000000     0.949730000000     0.981130000000    -0.49802    
O30      O      0.957590000000     0.024220000000     0.979050000000    -0.639364   
O31      O      0.026460000000     0.993020000000     0.019710000000    -0.639136   
O32      O      0.940100000000     0.980250000000     0.940230000000    -0.502622   
O33      O      0.995420000000     0.896680000000     0.465080000000    -0.379943   
O34      O      0.048770000000     0.939640000000     0.450310000000    -0.333699   
O35      O      0.886760000000     0.963090000000     0.434120000000    -0.346705   
O36      O      0.879350000000     0.967200000000     0.480200000000    -0.357047   
O37      O      0.983300000000     0.982230000000     0.387910000000    -0.380069   
O38      O      0.037540000000     0.985990000000     0.402650000000    -0.338436   
O39      O      0.903130000000     0.886060000000     0.509100000000    -0.376065   
O40      O      0.886490000000     0.921790000000     0.522990000000    -0.342136   
O41      O      0.925390000000     0.859780000000     0.473460000000    -0.326086   
O42      O      0.979060000000     0.888120000000     0.532770000000    -0.532192   
O43      O      0.915280000000     0.924680000000     0.403190000000    -0.514991   
O44      O      0.935160000000     0.009910000000     0.391840000000    -0.326246   
O45      O      0.982120000000     0.946900000000     0.446150000000    -0.497011   
O46      O      0.928700000000     0.941320000000     0.472080000000    -0.638915   
O47      O      0.993300000000     0.981580000000     0.573010000000    -0.382183   
O48      O      0.938600000000     0.977260000000     0.559380000000    -0.357213   
O49      O      0.074730000000     0.081060000000     0.452420000000    -0.373673   
O50      O      0.090780000000     0.045080000000     0.438440000000    -0.336829   
O51      O      0.968860000000     0.066670000000     0.480250000000    -0.356176   
O52      O      0.929930000000     0.027410000000     0.512100000000    -0.36346    
O53      O      0.093770000000     0.012790000000     0.525570000000    -0.341372   
O54      O      0.100360000000     0.004680000000     0.480570000000    -0.343113   
O55      O      0.059340000000     0.040300000000     0.561910000000    -0.517679   
O56      O      0.047650000000     0.958710000000     0.566880000000    -0.338774   
O57      O      0.046980000000     0.097590000000     0.503100000000    -0.355348   
O58      O      0.017420000000     0.092310000000     0.431750000000    -0.520422   
O59      O      0.995780000000     0.020620000000     0.515830000000    -0.635947   
O60      O      0.049220000000     0.026090000000     0.488980000000    -0.496401   
O61      O      0.969490000000     0.950420000000     0.525810000000    -0.499026   
O62      O      0.008930000000     0.017320000000     0.436260000000    -0.635992   
O63      O      0.024160000000     0.956350000000     0.499060000000    -0.635035   
O64      O      0.954350000000     0.010720000000     0.462840000000    -0.49101    
O65      O      0.022180000000     0.405000000000     0.010390000000    -0.370822   
O66      O      0.019010000000     0.408690000000     0.961590000000    -0.368098   
O67      O      0.880140000000     0.438520000000     0.017080000000    -0.37489    
O68      O      0.912580000000     0.490280000000     0.032960000000    -0.343359   
O69      O      0.906060000000     0.374630000000     0.970600000000    -0.360303   
O70      O      0.943860000000     0.388320000000     0.934820000000    -0.359004   
O71      O      0.006330000000     0.462770000000     0.073800000000    -0.350938   
O72      O      0.985840000000     0.500440000000     0.069520000000    -0.369264   
O73      O      0.972370000000     0.391690000000     0.057660000000    -0.338762   
O74      O      0.064000000000     0.455910000000     0.048850000000    -0.347818   
O75      O      0.872160000000     0.378590000000     0.016440000000    -0.511843   
O76      O      0.863010000000     0.416070000000     0.952200000000    -0.358417   
O77      O      0.964220000000     0.418030000000     0.988880000000    -0.483485   
O78      O      0.953790000000     0.450970000000     0.026060000000    -0.631265   
O79      O      0.070600000000     0.571470000000     0.009430000000    -0.374204   
O80      O      0.022890000000     0.566330000000     0.030990000000    -0.348997   
O81      O      0.966740000000     0.495870000000     0.891010000000    -0.381584   
O82      O      0.986370000000     0.457610000000     0.894370000000    -0.379677   
O83      O      0.949070000000     0.552190000000     0.953080000000    -0.374072   
O84      O      0.959350000000     0.553690000000     0.001400000000    -0.360114   
O85      O      0.089450000000     0.514390000000     0.951000000000    -0.363309   
O86      O      0.055580000000     0.465950000000     0.929580000000    -0.352289   
O87      O      0.084900000000     0.576850000000     0.946320000000    -0.53084    
O88      O      0.105450000000     0.541060000000     0.012690000000    -0.304543   
O89      O      0.986630000000     0.560310000000     0.904900000000    -0.336562   
O90      O      0.900710000000     0.492120000000     0.916950000000    -0.526442   
O91      O      0.003670000000     0.535970000000     0.975270000000    -0.64046    
O92      O      0.013280000000     0.503590000000     0.939010000000    -0.497901   
O93      O      0.024970000000     0.501880000000     0.021620000000    -0.495557   
O94      O      0.941200000000     0.451100000000     0.942740000000    -0.629956   
O95      O      0.035010000000     0.469680000000     0.985000000000    -0.639956   
O96      O      0.931300000000     0.484020000000     0.980450000000    -0.495139   
O97      O      0.964060000000     0.382710000000     0.521850000000    -0.370614   
O98      O      0.972370000000     0.383810000000     0.474800000000    -0.367516   
O99      O      0.878750000000     0.473640000000     0.501240000000    -0.371157   
O100     O      0.922240000000     0.524430000000     0.514880000000    -0.365731   
O101     O      0.879720000000     0.396460000000     0.452880000000    -0.364328   
O102     O      0.923180000000     0.387930000000     0.438100000000    -0.364993   
O103     O      0.986060000000     0.469150000000     0.574090000000    -0.353414   
O104     O      0.980910000000     0.516320000000     0.562730000000    -0.373235   
O105     O      0.928070000000     0.400570000000     0.563720000000    -0.339691   
O106     O      0.019480000000     0.426270000000     0.559310000000    -0.519646   
O107     O      0.854610000000     0.404600000000     0.502820000000    -0.345669   
O108     O      0.862920000000     0.455340000000     0.439870000000    -0.320716   
O109     O      0.939410000000     0.421420000000     0.489490000000    -0.505968   
O110     O      0.939350000000     0.465090000000     0.519750000000    -0.633894   
O111     O      0.078450000000     0.563010000000     0.511560000000    -0.369229   
O112     O      0.034770000000     0.573040000000     0.523630000000    -0.359462   
O113     O      0.981670000000     0.495040000000     0.389330000000    -0.379559   
O114     O      0.982090000000     0.445630000000     0.400500000000    -0.373208   
O115     O      0.990220000000     0.575790000000     0.440480000000    -0.374721   
O116     O      0.985610000000     0.577180000000     0.487850000000    -0.361361   
O117     O      0.066240000000     0.495290000000     0.444700000000    -0.339382   
O118     O      0.036690000000     0.439710000000     0.446960000000    -0.364526   
O119     O      0.115430000000     0.551390000000     0.477630000000    -0.512132   
O120     O      0.088150000000     0.490190000000     0.520070000000    -0.366465   
O121     O      0.029480000000     0.563340000000     0.401560000000    -0.328488   
O122     O      0.935640000000     0.525880000000     0.400440000000    -0.532344   
O123     O      0.019100000000     0.538570000000     0.473680000000    -0.632727   
O124     O      0.018660000000     0.495320000000     0.444050000000    -0.466473   
O125     O      0.015040000000     0.497600000000     0.525080000000    -0.480796   
O126     O      0.942270000000     0.462260000000     0.438230000000    -0.636304   
O127     O      0.015790000000     0.452740000000     0.495560000000    -0.631524   
O128     O      0.941900000000     0.506660000000     0.467970000000    -0.502027   
O129     O      0.384480000000     0.982100000000     0.925780000000    -0.376111   
O130     O      0.371310000000     0.970850000000     0.972800000000    -0.364641   
O131     O      0.472830000000     0.890800000000     0.947830000000    -0.376878   
O132     O      0.528520000000     0.931840000000     0.935420000000    -0.361327   
O133     O      0.376670000000     0.887890000000     0.982020000000    -0.352728   
O134     O      0.371230000000     0.922300000000     0.009650000000    -0.356648   
O135     O      0.476140000000     0.991420000000     0.878880000000    -0.355441   
O136     O      0.528360000000     0.990500000000     0.892580000000    -0.364688   
O137     O      0.397500000000     0.944170000000     0.891770000000    -0.319094   
O138     O      0.445010000000     0.034760000000     0.889590000000    -0.530704   
O139     O      0.402800000000     0.871130000000     0.936080000000    -0.520296   
O140     O      0.435410000000     0.866980000000     0.006800000000    -0.358151   
O141     O      0.416320000000     0.948370000000     0.958990000000    -0.482882   
O142     O      0.468100000000     0.951080000000     0.931430000000    -0.627124   
O143     O      0.572390000000     0.076580000000     0.953170000000    -0.379189   
O144     O      0.584960000000     0.039260000000     0.936620000000    -0.360672   
O145     O      0.477640000000     0.966240000000     0.066200000000    -0.376953   
O146     O      0.427490000000     0.971150000000     0.053250000000    -0.367188   
O147     O      0.568920000000     0.976860000000     0.019900000000    -0.379172   
O148     O      0.582080000000     0.983470000000     0.973250000000    -0.367159   
O149     O      0.485930000000     0.068040000000     0.004600000000    -0.37162    
O150     O      0.427550000000     0.029020000000     0.011250000000    -0.369453   
O151     O      0.560000000000     0.091240000000     0.004050000000    -0.517839   
O152     O      0.507910000000     0.091550000000     0.941780000000    -0.356175   
O153     O      0.552740000000     0.007060000000     0.061000000000    -0.333957   
O154     O      0.505580000000     0.920780000000     0.050510000000    -0.528191   
O155     O      0.538940000000     0.012920000000     0.986990000000    -0.633444   
O156     O      0.487410000000     0.009580000000     0.014230000000    -0.496984   
O157     O      0.505910000000     0.021310000000     0.933280000000    -0.501703   
O158     O      0.448390000000     0.938590000000     0.012180000000    -0.63249    
O159     O      0.452340000000     0.017510000000     0.960970000000    -0.62931    
O160     O      0.501770000000     0.942840000000     0.983990000000    -0.491943   
O161     O      0.496060000000     0.077520000000     0.436320000000    -0.380271   
O162     O      0.518260000000     0.085510000000     0.482410000000    -0.354561   
O163     O      0.370520000000     0.910850000000     0.469470000000    -0.38528    
O164     O      0.392130000000     0.890010000000     0.440250000000    -0.364714   
O165     O      0.414420000000     0.997840000000     0.522110000000    -0.388757   
O166     O      0.467820000000     0.046210000000     0.523200000000    -0.355379   
O167     O      0.454220000000     0.990690000000     0.381920000000    -0.350814   
O168     O      0.444410000000     0.937100000000     0.390690000000    -0.364541   
O169     O      0.427920000000     0.031690000000     0.407900000000    -0.319288   
O170     O      0.516500000000     0.056950000000     0.388380000000    -0.522721   
O171     O      0.373760000000     0.981280000000     0.462640000000    -0.539668   
O172     O      0.370910000000     0.928990000000     0.522950000000    -0.343177   
O173     O      0.458910000000     0.018060000000     0.471890000000    -0.502412   
O174     O      0.431310000000     0.966280000000     0.440310000000    -0.637717   
O175     O      0.537250000000     0.971910000000     0.414830000000    -0.356906   
O176     O      0.499480000000     0.917780000000     0.423240000000    -0.364536   
O177     O      0.511380000000     0.971590000000     0.565730000000    -0.378853   
O178     O      0.522220000000     0.025460000000     0.556440000000    -0.367422   
O179     O      0.463540000000     0.882720000000     0.511840000000    -0.351241   
O180     O      0.442570000000     0.875390000000     0.465270000000    -0.368086   
O181     O      0.597510000000     0.047470000000     0.481920000000    -0.381881   
O182     O      0.574860000000     0.068900000000     0.509660000000    -0.355219   
O183     O      0.586750000000     0.970190000000     0.477920000000    -0.533149   
O184     O      0.604280000000     0.030840000000     0.430940000000    -0.335888   
O185     O      0.541360000000     0.932840000000     0.538130000000    -0.338534   
O186     O      0.454930000000     0.905300000000     0.561350000000    -0.520068   
O187     O      0.508050000000     0.943080000000     0.475680000000    -0.627529   
O188     O      0.535360000000     0.995720000000     0.506700000000    -0.503876   
O189     O      0.501980000000     0.984590000000     0.426640000000    -0.476774   
O190     O      0.464660000000     0.977210000000     0.520800000000    -0.63739    
O191     O      0.528870000000     0.035610000000     0.457760000000    -0.630087   
O192     O      0.439070000000     0.926980000000     0.489560000000    -0.493938   
O193     O      0.465340000000     0.386670000000     0.020060000000    -0.344121   
O194     O      0.467810000000     0.381300000000     0.973250000000    -0.357868   
O195     O      0.397500000000     0.486940000000     0.002090000000    -0.385985   
O196     O      0.436620000000     0.540200000000     0.991920000000    -0.345486   
O197     O      0.379190000000     0.398360000000     0.959000000000    -0.383096   
O198     O      0.416280000000     0.382920000000     0.942360000000    -0.355732   
O199     O      0.485830000000     0.477750000000     0.065170000000    -0.375872   
O200     O      0.488500000000     0.528230000000     0.051240000000    -0.367368   
O201     O      0.433560000000     0.409770000000     0.059240000000    -0.313145   
O202     O      0.526270000000     0.439760000000     0.056590000000    -0.528592   
O203     O      0.349070000000     0.423510000000     0.987820000000    -0.519907   
O204     O      0.376150000000     0.470450000000     0.930310000000    -0.359547   
O205     O      0.439900000000     0.425760000000     0.985390000000    -0.495009   
O206     O      0.448030000000     0.475180000000     0.012080000000    -0.620493   
O207     O      0.588040000000     0.563110000000     0.995450000000    -0.386071   
O208     O      0.550840000000     0.579940000000     0.009180000000    -0.343475   
O209     O      0.480290000000     0.487410000000     0.880910000000    -0.375639   
O210     O      0.472750000000     0.435480000000     0.894910000000    -0.357166   
O211     O      0.497310000000     0.577080000000     0.925600000000    -0.345211   
O212     O      0.499230000000     0.584710000000     0.972590000000    -0.346346   
O213     O      0.562190000000     0.483340000000     0.935990000000    -0.353354   
O214     O      0.529250000000     0.428290000000     0.942180000000    -0.350757   
O215     O      0.617510000000     0.545230000000     0.960540000000    -0.521625   
O216     O      0.591200000000     0.488010000000     0.009900000000    -0.361866   
O217     O      0.535930000000     0.554750000000     0.889280000000    -0.325201   
O218     O      0.442860000000     0.527000000000     0.887930000000    -0.522941   
O219     O      0.526830000000     0.539630000000     0.961020000000    -0.634497   
O220     O      0.518650000000     0.489760000000     0.934740000000    -0.469863   
O221     O      0.522830000000     0.502590000000     0.014680000000    -0.495978   
O222     O      0.442820000000     0.462470000000     0.931380000000    -0.627217   
O223     O      0.515890000000     0.451680000000     0.988400000000    -0.633453   
O224     O      0.450820000000     0.512810000000     0.957990000000    -0.490587   
O225     O      0.491560000000     0.398860000000     0.492910000000    -0.379171   
O226     O      0.487560000000     0.405990000000     0.444230000000    -0.370022   
O227     O      0.379970000000     0.460510000000     0.508350000000    -0.385312   
O228     O      0.420180000000     0.508600000000     0.528440000000    -0.360032   
O229     O      0.385480000000     0.402590000000     0.442190000000    -0.378098   
O230     O      0.429580000000     0.404630000000     0.417860000000    -0.358567   
O231     O      0.489510000000     0.456370000000     0.563140000000    -0.379415   
O232     O      0.482700000000     0.502460000000     0.562930000000    -0.378351   
O233     O      0.453030000000     0.391610000000     0.541860000000    -0.33767    
O234     O      0.545540000000     0.446220000000     0.536520000000    -0.527212   
O235     O      0.362630000000     0.396980000000     0.496340000000    -0.518461   
O236     O      0.360620000000     0.455820000000     0.443210000000    -0.355901   
O237     O      0.449650000000     0.429390000000     0.474020000000    -0.502121   
O238     O      0.446840000000     0.461480000000     0.513980000000    -0.636198   
O239     O      0.578270000000     0.568080000000     0.510690000000    -0.374599   
O240     O      0.532970000000     0.571830000000     0.528200000000    -0.368009   
O241     O      0.479840000000     0.524960000000     0.382830000000    -0.350743   
O242     O      0.481760000000     0.476450000000     0.382660000000    -0.373214   
O243     O      0.455210000000     0.570120000000     0.452470000000    -0.369195   
O244     O      0.463550000000     0.565060000000     0.500970000000    -0.372859   
O245     O      0.569800000000     0.523870000000     0.426030000000    -0.342542   
O246     O      0.543160000000     0.469210000000     0.420530000000    -0.361819   
O247     O      0.604670000000     0.584200000000     0.459260000000    -0.517697   
O248     O      0.602430000000     0.515260000000     0.491840000000    -0.361342   
O249     O      0.515390000000     0.591240000000     0.414160000000    -0.32655    
O250     O      0.423940000000     0.535320000000     0.400310000000    -0.523228   
O251     O      0.513540000000     0.549250000000     0.471910000000    -0.63405    
O252     O      0.515520000000     0.516090000000     0.431820000000    -0.472773   
O253     O      0.522800000000     0.503430000000     0.514660000000    -0.495351   
O254     O      0.439730000000     0.474700000000     0.430790000000    -0.634394   
O255     O      0.525180000000     0.470310000000     0.473860000000    -0.627736   
O256     O      0.437950000000     0.507170000000     0.471800000000    -0.501663   
O257     O      0.524780000000     0.421900000000     0.879270000000    -0.154756   
O258     O      0.454290000000     0.373730000000     0.880590000000    -0.258551   
O259     O      0.496330000000     0.376640000000     0.839970000000    -0.179187   
O260     O      0.490310000000     0.586090000000     0.353900000000    -0.165977   
O261     O      0.547730000000     0.575200000000     0.368350000000    -0.250389   
O262     O      0.543570000000     0.608870000000     0.317590000000    -0.174009   
O263     O      0.522960000000     0.872420000000     0.507790000000    -0.180609   
O264     O      0.491850000000     0.858040000000     0.559000000000    -0.269249   
O265     O      0.516310000000     0.818600000000     0.542520000000    -0.182085   
O266     O      0.591830000000     0.135630000000     0.473760000000    -0.180106   
O267     O      0.605880000000     0.191030000000     0.499360000000    -0.277608   
O268     O      0.560820000000     0.128880000000     0.523370000000    -0.172836   
O269     O      0.432680000000     0.930110000000     0.854780000000    -0.166962   
O270     O      0.421600000000     0.983790000000     0.837780000000    -0.271318   
O271     O      0.414910000000     0.941270000000     0.799550000000    -0.17647    
O272     O      0.381880000000     0.975880000000     0.370480000000    -0.169368   
O273     O      0.434200000000     0.035070000000     0.346800000000    -0.257589   
O274     O      0.371350000000     0.998460000000     0.316700000000    -0.173775   
O275     O      0.565330000000     0.621610000000     0.904470000000    -0.176415   
O276     O      0.503820000000     0.603480000000     0.869980000000    -0.267469   
O277     O      0.560350000000     0.666550000000     0.864220000000    -0.179747   
O278     O      0.449980000000     0.354450000000     0.075280000000    -0.156044   
O279     O      0.394880000000     0.343050000000     0.035110000000    -0.260646   
O280     O      0.392030000000     0.293020000000     0.074060000000    -0.176804   
O281     O      0.805130000000     0.382940000000     0.442900000000    -0.157903   
O282     O      0.845860000000     0.399110000000     0.396690000000    -0.277088   
O283     O      0.776550000000     0.348380000000     0.395980000000    -0.175012   
O284     O      0.105880000000     0.567430000000     0.575110000000    -0.147738   
O285     O      0.150650000000     0.572990000000     0.535380000000    -0.266871   
O286     O      0.175440000000     0.615670000000     0.577520000000    -0.171341   
O287     O      0.597410000000     0.543770000000     0.366880000000    -0.143581   
O288     O      0.632560000000     0.591250000000     0.404950000000    -0.26356    
O289     O      0.669880000000     0.578450000000     0.369880000000    -0.173234   
O290     O      0.094460000000     0.503560000000     0.387640000000    -0.153131   
O291     O      0.131370000000     0.557160000000     0.419470000000    -0.268123   
O292     O      0.166920000000     0.535030000000     0.391530000000    -0.176539   
O293     O      0.057200000000     0.494540000000     0.588030000000    -0.159661   
O294     O      0.073240000000     0.483650000000     0.644250000000    -0.266351   
O295     O      0.015920000000     0.434420000000     0.616680000000    -0.178879   
O296     O      0.041110000000     0.430350000000     0.107410000000    -0.166107   
O297     O      0.078310000000     0.497960000000     0.093160000000    -0.253435   
O298     O      0.087780000000     0.471410000000     0.146140000000    -0.173899   
O299     O      0.947950000000     0.340530000000     0.998510000000    -0.158533   
O300     O      0.883760000000     0.320790000000     0.020830000000    -0.261385   
O301     O      0.903010000000     0.274860000000     0.011220000000    -0.173613   
O302     O      0.339820000000     0.900020000000     0.935710000000    -0.155465   
O303     O      0.325790000000     0.835700000000     0.933230000000    -0.269779   
O304     O      0.272330000000     0.851920000000     0.924020000000    -0.176838   
O305     O      0.906920000000     0.508830000000     0.084160000000    -0.162672   
O306     O      0.907280000000     0.550560000000     0.037460000000    -0.256805   
O307     O      0.863830000000     0.536680000000     0.080730000000    -0.176216   
O308     O      0.154270000000     0.563950000000     0.972790000000    -0.160172   
O309     O      0.126140000000     0.498910000000     0.996910000000    -0.27115    
O310     O      0.197670000000     0.537650000000     0.990580000000    -0.175379   
O311     O      0.881510000000     0.903410000000     0.583820000000    -0.161733   
O312     O      0.839210000000     0.927480000000     0.554730000000    -0.256909   
O313     O      0.813430000000     0.879000000000     0.598650000000    -0.17962    
O314     O      0.144390000000     0.036260000000     0.419500000000    -0.135894   
O315     O      0.101540000000     0.052200000000     0.381030000000    -0.251323   
O316     O      0.172250000000     0.077090000000     0.372220000000    -0.171197   
O317     O      0.856430000000     0.943650000000     0.380360000000    -0.160167   
O318     O      0.844320000000     0.895500000000     0.424680000000    -0.280205   
O319     O      0.791810000000     0.888100000000     0.383560000000    -0.17691    
O320     O      0.129010000000     0.079980000000     0.533000000000    -0.173876   
O321     O      0.124570000000     0.035510000000     0.578910000000    -0.264287   
O322     O      0.184630000000     0.096020000000     0.571970000000    -0.181563   
O323     O      0.119660000000     0.953150000000     0.441090000000    -0.131495   
O324     O      0.094630000000     0.930620000000     0.494500000000    -0.270447   
O325     O      0.138330000000     0.911430000000     0.474330000000    -0.17736    
O326     O      0.958410000000     0.107180000000     0.425130000000    -0.180297   
O327     O      0.904230000000     0.044620000000     0.440700000000    -0.268007   
O328     O      0.890270000000     0.096140000000     0.423640000000    -0.176691   
O329     O      0.037780000000     0.052830000000     0.860250000000    -0.189665   
O330     O      0.025650000000     0.083470000000     0.810540000000    -0.272375   
O331     O      0.987290000000     0.072990000000     0.856400000000    -0.171294   
O332     O      0.090300000000     0.973210000000     0.388840000000    -0.120637   
O333     O      0.021960000000     0.920590000000     0.389000000000    -0.257345   
O334     O      0.067990000000     0.927980000000     0.349800000000    -0.170622   
O335     O      0.540960000000     0.636120000000     0.015320000000    -0.158941   
O336     O      0.565890000000     0.608880000000     0.060690000000    -0.259433   
O337     O      0.592830000000     0.676450000000     0.051790000000    -0.177069   
O338     O      0.125830000000     0.032480000000     0.057650000000    -0.177364   
O339     O      0.158770000000     0.044770000000     0.007790000000    -0.259407   
O340     O      0.198160000000     0.068600000000     0.057040000000    -0.175007   
O341     O      0.849360000000     0.915690000000     0.062640000000    -0.177483   
O342     O      0.912300000000     0.953160000000     0.092940000000    -0.262834   
O343     O      0.847680000000     0.930530000000     0.115840000000    -0.172416   
O344     O      0.984450000000     0.875880000000     0.898630000000    -0.164842   
O345     O      0.997920000000     0.928210000000     0.858880000000    -0.26277    
O346     O      0.012480000000     0.878980000000     0.849260000000    -0.177021   
O347     O      0.924350000000     0.831260000000     0.050450000000    -0.161221   
O348     O      0.884370000000     0.840070000000     0.004500000000    -0.280489   
O349     O      0.867740000000     0.777530000000     0.028470000000    -0.177563   
O350     O      0.954410000000     0.098110000000     0.007820000000    -0.17761    
O351     O      0.003250000000     0.105920000000     0.052780000000    -0.25336    
O352     O      0.977260000000     0.149740000000     0.040470000000    -0.178583   
S1       S      0.487960000000     0.399670000000     0.859210000000     0.273008   
S2       S      0.519630000000     0.577820000000     0.341400000000     0.278944   
S3       S      0.496760000000     0.841720000000     0.530830000000     0.275657   
S4       S      0.574330000000     0.151780000000     0.492540000000     0.271353   
S5       S      0.437960000000     0.959760000000     0.828730000000     0.277035   
S6       S      0.401860000000     0.995980000000     0.340400000000     0.276838   
S7       S      0.537610000000     0.634580000000     0.887740000000     0.278029   
S8       S      0.419280000000     0.326690000000     0.053910000000     0.275413   
S9       S      0.813830000000     0.367650000000     0.416550000000     0.273786   
S10      S      0.140210000000     0.594320000000     0.555650000000     0.268801   
S11      S      0.633630000000     0.561110000000     0.388920000000     0.271889   
S12      S      0.130550000000     0.522970000000     0.409360000000     0.271063   
S13      S      0.039410000000     0.475500000000     0.619070000000     0.276687   
S14      S      0.057670000000     0.467840000000     0.119440000000     0.278314   
S15      S      0.905100000000     0.311160000000     0.998790000000     0.269975   
S16      S      0.310340000000     0.860040000000     0.943090000000     0.271838   
S17      S      0.881630000000     0.520750000000     0.061980000000     0.274806   
S18      S      0.157360000000     0.529100000000     0.975640000000     0.279179   
S19      S      0.839880000000     0.893090000000     0.571270000000     0.271115   
S20      S      0.143040000000     0.066570000000     0.397120000000     0.276472   
S21      S      0.826200000000     0.915820000000     0.402700000000     0.273832   
S22      S      0.151800000000     0.064780000000     0.554690000000     0.275841   
S23      S      0.105240000000     0.920430000000     0.465220000000     0.269391   
S24      S      0.919920000000     0.086100000000     0.441220000000     0.270934   
S25      S      0.006150000000     0.056790000000     0.839140000000     0.280987   
S26      S      0.055370000000     0.948530000000     0.368300000000     0.275341   
S27      S      0.577240000000     0.641450000000     0.035630000000     0.274525   
S28      S      0.159890000000     0.060580000000     0.038460000000     0.271451   
S29      S      0.869340000000     0.944800000000     0.085780000000     0.274431   
S30      S      0.012550000000     0.901580000000     0.874130000000     0.280589   
S31      S      0.901430000000     0.815560000000     0.020350000000     0.27276    
S32      S      0.989610000000     0.125970000000     0.026190000000     0.264319   
Zr1      Zr     0.055190000000     0.005870000000     0.976230000000     1.40257    
Zr2      Zr     0.988100000000     0.036390000000     0.936320000000     1.38881    
Zr3      Zr     0.978230000000     0.937210000000     0.024100000000     1.39339    
Zr4      Zr     0.911410000000     0.967730000000     0.983800000000     1.37543    
Zr5      Zr     0.000280000000     0.028720000000     0.017970000000     1.40286    
Zr6      Zr     0.966220000000     0.944390000000     0.941920000000     1.37651    
Zr7      Zr     0.963250000000     0.915130000000     0.490790000000     1.38415    
Zr8      Zr     0.948510000000     0.974590000000     0.428540000000     1.39759    
Zr9      Zr     0.030070000000     0.993320000000     0.532770000000     1.40353    
Zr10     Zr     0.014770000000     0.052560000000     0.471320000000     1.39644    
Zr11     Zr     0.042860000000     0.989520000000     0.454490000000     1.39908    
Zr12     Zr     0.935080000000     0.977440000000     0.507260000000     1.37927    
Zr13     Zr     0.005180000000     0.443450000000     0.027600000000     1.4085     
Zr14     Zr     0.913420000000     0.425990000000     0.986730000000     1.38844    
Zr15     Zr     0.054030000000     0.527520000000     0.978540000000     1.41684    
Zr16     Zr     0.960930000000     0.509680000000     0.937490000000     1.38313    
Zr17     Zr     0.993920000000     0.444860000000     0.945440000000     1.3593     
Zr18     Zr     0.973990000000     0.510140000000     0.018700000000     1.38063    
Zr19     Zr     0.975680000000     0.438740000000     0.532090000000     1.38766    
Zr20     Zr     0.904150000000     0.448000000000     0.476330000000     1.39231    
Zr21     Zr     0.053960000000     0.511390000000     0.487710000000     1.38448    
Zr22     Zr     0.981990000000     0.520930000000     0.431350000000     1.37971    
Zr23     Zr     0.979020000000     0.436440000000     0.452080000000     1.37641    
Zr24     Zr     0.978810000000     0.524070000000     0.510730000000     1.36655    
Zr25     Zr     0.443760000000     0.988030000000     0.920220000000     1.39859    
Zr26     Zr     0.439660000000     0.911170000000     0.970290000000     1.39771    
Zr27     Zr     0.514240000000     0.049190000000     0.974790000000     1.37732    
Zr28     Zr     0.510380000000     0.971600000000     0.024950000000     1.39238    
Zr29     Zr     0.425150000000     0.976820000000     0.000510000000     1.36837    
Zr30     Zr     0.530650000000     0.984220000000     0.945440000000     1.35827    
Zr31     Zr     0.477210000000     0.020690000000     0.425500000000     1.39746    
Zr32     Zr     0.414820000000     0.963540000000     0.487390000000     1.39823    
Zr33     Zr     0.552140000000     0.997850000000     0.459780000000     1.37006    
Zr34     Zr     0.490070000000     0.941390000000     0.522070000000     1.39723    
Zr35     Zr     0.509840000000     0.031980000000     0.504710000000     1.38179    
Zr36     Zr     0.456610000000     0.929830000000     0.442420000000     1.37634    
Zr37     Zr     0.480060000000     0.445210000000     0.025880000000     1.39079    
Zr38     Zr     0.408740000000     0.456130000000     0.970350000000     1.37852    
Zr39     Zr     0.557520000000     0.508710000000     0.976310000000     1.37023    
Zr40     Zr     0.486690000000     0.519740000000     0.920430000000     1.39321    
Zr41     Zr     0.475320000000     0.432520000000     0.946950000000     1.38431    
Zr42     Zr     0.490710000000     0.532970000000     0.999180000000     1.37146    
Zr43     Zr     0.490830000000     0.444160000000     0.514550000000     1.38996    
Zr44     Zr     0.407140000000     0.448190000000     0.472520000000     1.39307    
Zr45     Zr     0.555810000000     0.529670000000     0.473080000000     1.37483    
Zr46     Zr     0.472380000000     0.534270000000     0.431160000000     1.39318    
Zr47     Zr     0.483350000000     0.456230000000     0.432660000000     1.37544    
Zr48     Zr     0.478780000000     0.521260000000     0.512820000000     1.37587    


