data_structure

_audit_creation_method RASPA-1.0
_audit_creation_date 2023-6-4
_audit_author_name 'Poobodin Mano'

_cell_length_a    42.8885
_cell_length_b    45.8289
_cell_length_c    46.9854
_cell_angle_alpha 82.7773
_cell_angle_beta  96.3135
_cell_angle_gamma 119.441
_cell_volume      79663

_symmetry_cell_setting          triclinic
_symmetry_space_group_name_Hall 'P 1'
_symmetry_space_group_name_H-M  'P 1'
_symmetry_Int_Tables_number     1

_symmetry_equiv_pos_as_xyz 'x,y,z'

loop_
_atom_site_label
_atom_site_type_symbol
_atom_site_fract_x
_atom_site_fract_y
_atom_site_fract_z
_atom_site_charge
C1       C      0.100920000000     0.067230000000     0.013270000000     0.398866   
C2       C      0.954570000000     0.973830000000     0.878790000000     0.39273    
C3       C      0.022530000000     0.098570000000     0.975250000000     0.403787   
C4       C      0.038500000000     0.942080000000     0.920790000000     0.399232   
C5       C      0.948230000000     0.862690000000     0.986580000000     0.398794   
C6       C      0.934210000000     0.009560000000     0.044650000000     0.378773   
C7       C      0.870330000000     0.894940000000     0.948230000000     0.396079   
C8       C      0.011480000000     0.986350000000     0.083090000000     0.398053   
C9       C      0.007040000000     0.905050000000     0.439100000000     0.400554   
C10      C      0.862430000000     0.971670000000     0.454640000000     0.392079   
C11      C      0.006500000000     0.994580000000     0.380980000000     0.404855   
C12      C      0.865600000000     0.887980000000     0.511410000000     0.389608   
C13      C      0.950570000000     0.964520000000     0.579710000000     0.394118   
C14      C      0.093230000000     0.070300000000     0.450770000000     0.392567   
C15      C      0.948530000000     0.055480000000     0.517330000000     0.395931   
C16      C      0.096530000000     0.993520000000     0.505810000000     0.399313   
C17      C      0.021320000000     0.402190000000     0.970710000000     0.398993   
C18      C      0.894370000000     0.479340000000     0.025850000000     0.398515   
C19      C      0.906150000000     0.381410000000     0.932010000000     0.388422   
C20      C      0.008780000000     0.491830000000     0.074560000000     0.404156   
C21      C      0.068010000000     0.592370000000     0.013150000000     0.389184   
C22      C      0.969710000000     0.486460000000     0.869230000000     0.399458   
C23      C      0.942530000000     0.565020000000     0.974510000000     0.402639   
C24      C      0.078920000000     0.499670000000     0.914500000000     0.394291   
C25      C      0.958750000000     0.367030000000     0.492960000000     0.3912     
C26      C      0.882310000000     0.503190000000     0.492790000000     0.398546   
C27      C      0.888830000000     0.378560000000     0.429660000000     0.40169    
C28      C      0.953390000000     0.485600000000     0.569270000000     0.396565   
C29      C      0.059480000000     0.578240000000     0.519250000000     0.39304    
C30      C      0.995360000000     0.473290000000     0.375180000000     0.394225   
C31      C      0.988540000000     0.591680000000     0.450930000000     0.391044   
C32      C      0.064360000000     0.464320000000     0.446360000000     0.37944    
C33      C      0.371210000000     0.980580000000     0.951280000000     0.394999   
C34      C      0.505450000000     0.905900000000     0.935880000000     0.395848   
C35      C      0.368010000000     0.901860000000     0.004840000000     0.39042    
C36      C      0.513490000000     0.003100000000     0.875970000000     0.392008   
C37      C      0.602130000000     0.073300000000     0.944360000000     0.387381   
C38      C      0.459250000000     0.972330000000     0.075490000000     0.392096   
C39      C      0.596630000000     0.984170000000     0.000000000000     0.390162   
C40      C      0.468280000000     0.066260000000     0.020590000000     0.394592   
C41      C      0.506360000000     0.097150000000     0.457370000000     0.4012     
C42      C      0.357510000000     0.887480000000     0.457860000000     0.398225   
C43      C      0.428100000000     0.032550000000     0.528000000000     0.401594   
C44      C      0.440280000000     0.959320000000     0.375840000000     0.395939   
C45      C      0.519610000000     0.940100000000     0.417520000000     0.371974   
C46      C      0.510960000000     0.002630000000     0.575560000000     0.391979   
C47      C      0.435270000000     0.862930000000     0.495750000000     0.402877   
C48      C      0.592360000000     0.071550000000     0.496850000000     0.395968   
C49      C      0.477300000000     0.375140000000     0.005680000000     0.391781   
C50      C      0.398100000000     0.509820000000     0.003130000000     0.388388   
C51      C      0.393950000000     0.376120000000     0.953740000000     0.402505   
C52      C      0.486770000000     0.505090000000     0.077260000000     0.397115   
C53      C      0.576870000000     0.588280000000     0.013960000000     0.398305   
C54      C      0.486690000000     0.464670000000     0.881610000000     0.400812   
C55      C      0.497660000000     0.595270000000     0.952850000000     0.388522   
C56      C      0.568600000000     0.463420000000     0.947310000000     0.385442   
C57      C      0.500210000000     0.395010000000     0.469870000000     0.399436   
C58      C      0.381580000000     0.474160000000     0.533350000000     0.399288   
C59      C      0.392130000000     0.387470000000     0.428130000000     0.391479   
C60      C      0.488320000000     0.475640000000     0.581480000000     0.398465   
C61      C      0.556880000000     0.580240000000     0.530110000000     0.399749   
C62      C      0.466820000000     0.497350000000     0.374930000000     0.399369   
C63      C      0.444890000000     0.571560000000     0.486650000000     0.402087   
C64      C      0.563610000000     0.503160000000     0.419370000000     0.390519   
C65      C      0.491810000000     0.432560000000     0.814210000000    -0.102806   
C66      C      0.483210000000     0.492070000000     0.626100000000     0.0717504  
C67      C      0.497120000000     0.448030000000     0.625760000000     0.0708969  
C68      C      0.482070000000     0.487300000000     0.655900000000    -0.0933213  
C69      C      0.456840000000     0.455770000000     0.714910000000    -0.0359922  
C70      C      0.455610000000     0.453290000000     0.744640000000    -0.0345465  
C71      C      0.485290000000     0.455990000000     0.702520000000    -0.00660565 
C72      C      0.496390000000     0.442710000000     0.655680000000    -0.0935624  
C73      C      0.482860000000     0.451060000000     0.762680000000    -0.0089992  
C74      C      0.478300000000     0.477870000000     0.803540000000    -0.0971022  
C75      C      0.510360000000     0.449460000000     0.750380000000    -0.0341734  
C76      C      0.479880000000     0.480860000000     0.832710000000     0.0725881  
C77      C      0.493260000000     0.435920000000     0.843790000000     0.100265   
C78      C      0.511550000000     0.451880000000     0.720490000000    -0.0356623  
C79      C      0.488130000000     0.462060000000     0.670990000000     0.0496543  
C80      C      0.484030000000     0.453470000000     0.793940000000     0.0550109  
C81      C      0.465420000000     0.531720000000     0.298800000000    -0.103081   
C82      C      0.493090000000     0.489310000000     0.126820000000     0.0726065  
C83      C      0.483880000000     0.536250000000     0.113230000000     0.0706593  
C84      C      0.493940000000     0.493550000000     0.155720000000    -0.0950029  
C85      C      0.514570000000     0.520310000000     0.214250000000    -0.0360041  
C86      C      0.511450000000     0.518590000000     0.243710000000    -0.0346058  
C87      C      0.488660000000     0.522720000000     0.194560000000    -0.00694296 
C88      C      0.484080000000     0.540910000000     0.142160000000    -0.0932173  
C89      C      0.482240000000     0.519040000000     0.254160000000    -0.00869789 
C90      C      0.483010000000     0.489160000000     0.302220000000    -0.0955812  
C91      C      0.457250000000     0.523140000000     0.234410000000    -0.0345782  
C92      C      0.478390000000     0.484070000000     0.331590000000     0.0715715  
C93      C      0.460590000000     0.526100000000     0.328510000000     0.100813   
C94      C      0.460500000000     0.525050000000     0.204840000000    -0.0357074  
C95      C      0.489250000000     0.519420000000     0.163720000000     0.0498321  
C96      C      0.477060000000     0.513490000000     0.285500000000     0.0544102  
C97      C      0.408930000000     0.631570000000     0.475250000000    -0.10469    
C98      C      0.426900000000     0.815760000000     0.528430000000     0.0719458  
C99      C      0.406610000000     0.808100000000     0.479500000000     0.0725527  
C100     C      0.418630000000     0.782150000000     0.533370000000    -0.0955076  
C101     C      0.434750000000     0.726670000000     0.525720000000    -0.0357689  
C102     C      0.438190000000     0.698530000000     0.523080000000    -0.0342819  
C103     C      0.404620000000     0.728810000000     0.513210000000    -0.00741424 
C104     C      0.397840000000     0.774420000000     0.483730000000    -0.0952283  
C105     C      0.411450000000     0.671810000000     0.508030000000    -0.00965594 
C106     C      0.434280000000     0.631500000000     0.523360000000    -0.0977677  
C107     C      0.380230000000     0.673000000000     0.497060000000    -0.034929   
C108     C      0.443030000000     0.607760000000     0.517060000000     0.0726639  
C109     C      0.417370000000     0.607030000000     0.469390000000     0.102129   
C110     C      0.376880000000     0.701340000000     0.499580000000    -0.0365618  
C111     C      0.405280000000     0.761520000000     0.510570000000     0.0500983  
C112     C      0.417560000000     0.644070000000     0.502310000000     0.0551313  
C113     C      0.528500000000     0.329470000000     0.482820000000    -0.105165   
C114     C      0.506040000000     0.142970000000     0.427240000000     0.0706613  
C115     C      0.530950000000     0.150880000000     0.475120000000     0.0733029  
C116     C      0.511140000000     0.175680000000     0.423760000000    -0.0948792  
C117     C      0.496120000000     0.231410000000     0.434200000000    -0.0358517  
C118     C      0.494180000000     0.260380000000     0.436910000000    -0.0345293  
C119     C      0.526420000000     0.228720000000     0.445360000000    -0.00723304 
C120     C      0.536540000000     0.183610000000     0.472340000000    -0.0943808  
C121     C      0.522510000000     0.287190000000     0.450810000000    -0.0098161  
C122     C      0.504330000000     0.330620000000     0.434400000000    -0.0982539  
C123     C      0.553520000000     0.285160000000     0.460780000000    -0.03501    
C124     C      0.499040000000     0.356840000000     0.439920000000     0.0715532  
C125     C      0.523170000000     0.356160000000     0.488010000000     0.101755   
C126     C      0.555480000000     0.256170000000     0.458040000000    -0.0364007  
C127     C      0.525740000000     0.196050000000     0.446740000000     0.0500906  
C128     C      0.518810000000     0.316430000000     0.455980000000     0.0551584  
C129     C      0.519560000000     0.033750000000     0.646960000000    -0.101039   
C130     C      0.544120000000     0.998800000000     0.838340000000     0.0688336  
C131     C      0.502250000000     0.018720000000     0.827150000000     0.0697317  
C132     C      0.549190000000     0.000670000000     0.809040000000    -0.0917662  
C133     C      0.525080000000     0.983530000000     0.744770000000    -0.0367506  
C134     C      0.524290000000     0.983460000000     0.714890000000    -0.0347254  
C135     C      0.534040000000     0.013090000000     0.757280000000    -0.00630716 
C136     C      0.507440000000     0.021770000000     0.797880000000    -0.0926259  
C137     C      0.533180000000     0.013170000000     0.696790000000    -0.0082634  
C138     C      0.535100000000     0.989720000000     0.651530000000    -0.0948295  
C139     C      0.543680000000     0.043060000000     0.709690000000    -0.0346658  
C140     C      0.528860000000     0.987480000000     0.621880000000     0.0692127  
C141     C      0.514050000000     0.031580000000     0.617020000000     0.097576   
C142     C      0.543630000000     0.042900000000     0.739510000000    -0.0366612  
C143     C      0.530650000000     0.012220000000     0.788490000000     0.0477765  
C144     C      0.529830000000     0.012560000000     0.664690000000     0.0517788  
C145     C      0.416850000000     0.922810000000     0.304670000000    -0.101485   
C146     C      0.422590000000     0.967800000000     0.112650000000     0.0691464  
C147     C      0.475420000000     0.963650000000     0.124810000000     0.0680777  
C148     C      0.415540000000     0.963310000000     0.141800000000    -0.0909754  
C149     C      0.420760000000     0.974220000000     0.205560000000    -0.0360864  
C150     C      0.418070000000     0.972550000000     0.235230000000    -0.034858   
C151     C      0.432780000000     0.954770000000     0.194200000000    -0.0059904  
C152     C      0.469160000000     0.959070000000     0.153980000000    -0.0916777  
C153     C      0.427300000000     0.951380000000     0.254320000000    -0.00843372 
C154     C      0.440830000000     0.982490000000     0.298150000000    -0.0954727  
C155     C      0.437990000000     0.930990000000     0.242850000000    -0.0346722  
C156     C      0.443460000000     0.983480000000     0.327860000000     0.0704752  
C157     C      0.419480000000     0.924200000000     0.334740000000     0.0992194  
C158     C      0.440680000000     0.932650000000     0.213200000000    -0.0360677  
C159     C      0.438940000000     0.958810000000     0.162930000000     0.0472284  
C160     C      0.427920000000     0.952090000000     0.286090000000     0.0529546  
C161     C      0.511580000000     0.677370000000     0.914670000000    -0.101261   
C162     C      0.480250000000     0.850170000000     0.922800000000     0.0728558  
C163     C      0.543470000000     0.883730000000     0.926510000000     0.0692675  
C164     C      0.483120000000     0.821650000000     0.920590000000    -0.0942708  
C165     C      0.496780000000     0.766010000000     0.947270000000    -0.0362939  
C166     C      0.495990000000     0.735030000000     0.950690000000    -0.0349169  
C167     C      0.518640000000     0.791650000000     0.927270000000    -0.00653875 
C168     C      0.547350000000     0.855230000000     0.924660000000    -0.0913059  
C169     C      0.517070000000     0.728630000000     0.934250000000    -0.00891224 
C170     C      0.513920000000     0.679120000000     0.965570000000    -0.0958891  
C171     C      0.539410000000     0.754360000000     0.914400000000    -0.0352568  
C172     C      0.508310000000     0.646340000000     0.969310000000     0.0679829  
C173     C      0.505930000000     0.644060000000     0.918800000000     0.0956951  
C174     C      0.540420000000     0.785760000000     0.911110000000    -0.0366083  
C175     C      0.516760000000     0.823480000000     0.923110000000     0.0483931  
C176     C      0.515010000000     0.694940000000     0.938110000000     0.0519178  
C177     C      0.481010000000     0.296880000000     0.999710000000    -0.101983   
C178     C      0.432490000000     0.090550000000     0.029930000000     0.0685163  
C179     C      0.494880000000     0.117840000000     0.042080000000     0.0724112  
C180     C      0.430980000000     0.119610000000     0.034440000000    -0.090637   
C181     C      0.435230000000     0.185900000000     0.048070000000    -0.0361559  
C182     C      0.436810000000     0.217560000000     0.044470000000    -0.0355193  
C183     C      0.464110000000     0.182260000000     0.040770000000    -0.00634989 
C184     C      0.494090000000     0.146520000000     0.047810000000    -0.0931088  
C185     C      0.467160000000     0.246050000000     0.033320000000    -0.00836143 
C186     C      0.458820000000     0.294070000000     0.045160000000    -0.0935016  
C187     C      0.496300000000     0.242500000000     0.027060000000    -0.0356411  
C188     C      0.462830000000     0.326370000000     0.037940000000     0.0667465  
C189     C      0.485330000000     0.329250000000     0.992960000000     0.0976238  
C190     C      0.494710000000     0.211190000000     0.030460000000    -0.0357155  
C191     C      0.462530000000     0.148740000000     0.042070000000     0.0475143  
C192     C      0.468240000000     0.279130000000     0.026000000000     0.050859   
C193     C      0.840400000000     0.286080000000     0.433030000000    -0.10332    
C194     C      0.629850000000     0.129880000000     0.503350000000     0.0690432  
C195     C      0.654830000000     0.097520000000     0.490830000000     0.0706835  
C196     C      0.661900000000     0.159510000000     0.497600000000    -0.091782   
C197     C      0.736000000000     0.219270000000     0.489360000000    -0.0365636  
C198     C      0.763920000000     0.248880000000     0.477470000000    -0.0346514  
C199     C      0.722680000000     0.189010000000     0.476480000000    -0.00650587 
C200     C      0.687320000000     0.126400000000     0.485520000000    -0.0931047  
C201     C      0.779430000000     0.248870000000     0.452620000000    -0.00940972 
C202     C      0.799710000000     0.307790000000     0.433500000000    -0.0989623  
C203     C      0.767350000000     0.218560000000     0.440340000000    -0.0351833  
C204     C      0.827210000000     0.339720000000     0.426070000000     0.072702   
C205     C      0.867920000000     0.318830000000     0.425400000000     0.101845   
C206     C      0.739040000000     0.188950000000     0.452010000000    -0.0360749  
C207     C      0.690640000000     0.158030000000     0.487340000000     0.0477002  
C208     C      0.806810000000     0.281070000000     0.439110000000     0.0548632  
C209     C      0.110790000000     0.670350000000     0.522010000000    -0.101924   
C210     C      0.322520000000     0.828330000000     0.453950000000     0.0714832  
C211     C      0.295530000000     0.858880000000     0.466800000000     0.0722302  
C212     C      0.291930000000     0.797960000000     0.461290000000    -0.0927215  
C213     C      0.239360000000     0.746200000000     0.505450000000    -0.0365298  
C214     C      0.211010000000     0.717380000000     0.517930000000    -0.0348368  
C215     C      0.232620000000     0.767020000000     0.484100000000    -0.00660134 
C216     C      0.264310000000     0.829140000000     0.473530000000    -0.0932323  
C217     C      0.175190000000     0.708240000000     0.508890000000    -0.00879055 
C218     C      0.150260000000     0.646960000000     0.523960000000    -0.096683   
C219     C      0.168570000000     0.729580000000     0.487820000000    -0.0346107  
C220     C      0.121020000000     0.615070000000     0.527930000000     0.069793   
C221     C      0.081490000000     0.637650000000     0.526080000000     0.0979708  
C222     C      0.197000000000     0.758820000000     0.475760000000    -0.0364153  
C223     C      0.262910000000     0.798290000000     0.472060000000     0.049109   
C224     C      0.145200000000     0.675040000000     0.519080000000     0.052358   
C225     C      0.661790000000     0.545330000000     0.418590000000    -0.104001   
C226     C      0.820620000000     0.483350000000     0.496010000000     0.0733018  
C227     C      0.860030000000     0.542070000000     0.490180000000     0.0706897  
C228     C      0.791170000000     0.488010000000     0.488090000000    -0.0950269  
C229     C      0.746100000000     0.501700000000     0.441290000000    -0.036081   
C230     C      0.714990000000     0.501060000000     0.428360000000    -0.0353003  
C231     C      0.766070000000     0.523280000000     0.462970000000    -0.00687068 
C232     C      0.830840000000     0.547710000000     0.481560000000    -0.0920627  
C233     C      0.703070000000     0.522050000000     0.436760000000    -0.00888652 
C234     C      0.637710000000     0.485420000000     0.424820000000    -0.0949076  
C235     C      0.724180000000     0.545160000000     0.457230000000    -0.0343359  
C236     C      0.603320000000     0.481400000000     0.419050000000     0.0696289  
C237     C      0.626910000000     0.540630000000     0.412410000000     0.103712   
C238     C      0.755560000000     0.545840000000     0.470200000000    -0.0365228  
C239     C      0.796290000000     0.520110000000     0.478660000000     0.0492427  
C240     C      0.667210000000     0.517650000000     0.426200000000     0.0549131  
C241     C      0.318350000000     0.501710000000     0.546970000000    -0.103665   
C242     C      0.096790000000     0.435090000000     0.463730000000     0.0695517  
C243     C      0.127320000000     0.494420000000     0.455200000000     0.0702156  
C244     C      0.127990000000     0.435920000000     0.477180000000    -0.0915213  
C245     C      0.189000000000     0.446750000000     0.521620000000    -0.0355088  
C246     C      0.219800000000     0.448720000000     0.536900000000    -0.0354051  
C247     C      0.191800000000     0.468990000000     0.497220000000    -0.00655675 
C248     C      0.158670000000     0.496230000000     0.468710000000    -0.0942426  
C249     C      0.254000000000     0.473310000000     0.528380000000    -0.0083748  
C250     C      0.287880000000     0.442290000000     0.542160000000    -0.0955894  
C251     C      0.256830000000     0.496140000000     0.504600000000    -0.0346502  
C252     C      0.320920000000     0.443250000000     0.544160000000     0.0742995  
C253     C      0.351380000000     0.501760000000     0.549810000000     0.100498   
C254     C      0.226170000000     0.493850000000     0.489070000000    -0.0358772  
C255     C      0.159150000000     0.466900000000     0.480710000000     0.0489176  
C256     C      0.286660000000     0.472230000000     0.540910000000     0.0541595  
C257     C      0.931540000000     0.460060000000     0.645360000000    -0.103323   
C258     C      0.964300000000     0.514520000000     0.824280000000     0.0692161  
C259     C      0.966450000000     0.463620000000     0.825370000000     0.070397   
C260     C      0.961390000000     0.516840000000     0.794350000000    -0.0951827  
C261     C      0.982340000000     0.518930000000     0.731390000000    -0.0417382  
C262     C      0.978850000000     0.519070000000     0.701450000000    -0.0398839  
C263     C      0.955750000000     0.493040000000     0.748210000000    -0.00590826 
C264     C      0.962660000000     0.464760000000     0.795420000000    -0.0939373  
C265     C      0.948390000000     0.493590000000     0.687880000000    -0.00750071 
C266     C      0.959830000000     0.520160000000     0.637120000000    -0.0949775  
C267     C      0.921010000000     0.468690000000     0.704970000000    -0.0351739  
C268     C      0.960070000000     0.517250000000     0.607900000000     0.0691791  
C269     C      0.931190000000     0.457610000000     0.615960000000     0.0985511  
C270     C      0.924910000000     0.468180000000     0.734850000000    -0.0370016  
C271     C      0.960210000000     0.491640000000     0.779750000000     0.0483616  
C272     C      0.946340000000     0.491400000000     0.656350000000     0.0519241  
C273     C      0.008000000000     0.448460000000     0.306560000000    -0.103897   
C274     C      0.005000000000     0.511440000000     0.118030000000     0.0760055  
C275     C      0.021390000000     0.468770000000     0.119910000000     0.069946   
C276     C      0.005070000000     0.508700000000     0.147920000000    -0.0865735  
C277     C      0.981590000000     0.480460000000     0.207810000000    -0.04275    
C278     C      0.979330000000     0.477000000000     0.237490000000    -0.0389809  
C279     C      0.009790000000     0.479810000000     0.195790000000     0.00101415 
C280     C      0.021600000000     0.465310000000     0.149860000000    -0.0916665  
C281     C      0.005120000000     0.472680000000     0.255870000000    -0.00518301 
C282     C      0.999920000000     0.497100000000     0.298030000000    -0.103801   
C283     C      0.032630000000     0.470760000000     0.243980000000    -0.0338848  
C284     C      0.998100000000     0.496830000000     0.327320000000     0.0676016  
C285     C      0.005970000000     0.448490000000     0.336280000000     0.10106    
C286     C      0.034990000000     0.474360000000     0.214150000000    -0.0373517  
C287     C      0.012610000000     0.484880000000     0.164180000000     0.0459297  
C288     C      0.004330000000     0.472540000000     0.287280000000     0.0604778  
C289     C      0.688660000000     0.126920000000     0.908560000000    -0.101288   
C290     C      0.845780000000     0.339040000000     0.924530000000     0.067483   
C291     C      0.892380000000     0.329210000000     0.913880000000     0.0663018  
C292     C      0.820120000000     0.306030000000     0.919880000000    -0.0918141  
C293     C      0.799560000000     0.225850000000     0.938670000000    -0.0366964  
C294     C      0.768600000000     0.194480000000     0.942210000000    -0.0356651  
C295     C      0.803230000000     0.247200000000     0.913560000000    -0.00697678 
C296     C      0.867180000000     0.295280000000     0.909920000000    -0.0907351  
C297     C      0.740830000000     0.183540000000     0.920550000000    -0.00898612 
C298     C      0.687240000000     0.151770000000     0.949980000000    -0.0951291  
C299     C      0.745550000000     0.203990000000     0.894660000000    -0.0352386  
C300     C      0.653090000000     0.124890000000     0.954890000000     0.067797   
C301     C      0.654340000000     0.099350000000     0.914330000000     0.0980171  
C302     C      0.776240000000     0.235710000000     0.891360000000    -0.0369366  
C303     C      0.830640000000     0.283370000000     0.913460000000     0.0460298  
C304     C      0.705390000000     0.153340000000     0.926520000000     0.0515106  
C305     C      0.282750000000     0.846600000000     0.041500000000    -0.102309   
C306     C      0.128280000000     0.634300000000     0.022260000000     0.0684872  
C307     C      0.081140000000     0.644330000000     0.031040000000     0.0668507  
C308     C      0.153760000000     0.667110000000     0.027770000000    -0.0919486  
C309     C      0.170700000000     0.749210000000     0.011940000000    -0.0372278  
C310     C      0.200830000000     0.781220000000     0.008750000000    -0.0360844  
C311     C      0.170140000000     0.725830000000     0.034570000000    -0.00646715 
C312     C      0.106120000000     0.678030000000     0.035680000000    -0.0910614  
C313     C      0.230660000000     0.790720000000     0.028480000000    -0.00895989 
C314     C      0.281660000000     0.825340000000     0.997100000000    -0.0949736  
C315     C      0.229050000000     0.768140000000     0.052210000000    -0.0351469  
C316     C      0.315640000000     0.852460000000     0.992200000000     0.0704874  
C317     C      0.316800000000     0.874470000000     0.035770000000     0.099026   
C318     C      0.199270000000     0.735840000000     0.055020000000    -0.0368483  
C319     C      0.142870000000     0.689750000000     0.033600000000     0.0466213  
C320     C      0.265060000000     0.821760000000     0.022140000000     0.0515349  
C321     C      0.664610000000     0.489630000000     0.960100000000    -0.105024   
C322     C      0.864150000000     0.507640000000     0.038550000000     0.0700106  
C323     C      0.832940000000     0.448810000000     0.035310000000     0.0727139  
C324     C      0.831430000000     0.507870000000     0.038180000000    -0.0903381  
C325     C      0.762840000000     0.505640000000     0.010620000000    -0.0377829  
C326     C      0.730380000000     0.503080000000     0.998390000000    -0.0315877  
C327     C      0.763840000000     0.477990000000     0.026620000000    -0.00446711 
C328     C      0.800160000000     0.448100000000     0.034690000000    -0.0919719  
C329     C      0.697970000000     0.472380000000     0.000720000000    -0.0101173  
C330     C      0.630040000000     0.442620000000     0.993050000000    -0.092782   
C331     C      0.698880000000     0.445450000000     0.018230000000    -0.0330675  
C332     C      0.598760000000     0.439530000000     0.978060000000     0.0725179  
C333     C      0.632700000000     0.487090000000     0.946270000000     0.101909   
C334     C      0.730990000000     0.448540000000     0.031540000000    -0.0370884  
C335     C      0.798740000000     0.478040000000     0.034440000000     0.0470211  
C336     C      0.663830000000     0.468310000000     0.984640000000     0.0540928  
C337     C      0.172960000000     0.534920000000     0.901260000000    -0.103904   
C338     C      0.335380000000     0.489170000000     0.000370000000     0.0635653  
C339     C      0.373630000000     0.545450000000     0.983050000000     0.0653467  
C340     C      0.305500000000     0.490610000000     0.987110000000    -0.0940887  
C341     C      0.255490000000     0.490900000000     0.937010000000    -0.0366925  
C342     C      0.223810000000     0.488000000000     0.922850000000    -0.0354783  
C343     C      0.278280000000     0.518780000000     0.952690000000    -0.00692474 
C344     C      0.343980000000     0.547800000000     0.969380000000    -0.092065   
C345     C      0.213980000000     0.512870000000     0.924090000000    -0.00841995 
C346     C      0.147300000000     0.475900000000     0.915860000000    -0.0943006  
C347     C      0.237720000000     0.541560000000     0.938680000000    -0.034926   
C348     C      0.113100000000     0.472900000000     0.911450000000     0.0677063  
C349     C      0.138340000000     0.531230000000     0.897270000000     0.109061   
C350     C      0.269610000000     0.544560000000     0.952690000000    -0.0361965  
C351     C      0.309690000000     0.519490000000     0.970180000000     0.0459322  
C352     C      0.177820000000     0.507650000000     0.912760000000     0.0529456  
C353     C      0.641830000000     0.643530000000     0.561220000000    -0.104191   
C354     C      0.811070000000     0.861720000000     0.536790000000     0.0677373  
C355     C      0.821630000000     0.831330000000     0.505430000000     0.0670373  
C356     C      0.778800000000     0.832730000000     0.544490000000    -0.089793   
C357     C      0.703100000000     0.768390000000     0.546260000000    -0.0365855  
C358     C      0.672040000000     0.737100000000     0.551050000000    -0.034559   
C359     C      0.735660000000     0.769980000000     0.541140000000    -0.0055093  
C360     C      0.789690000000     0.802540000000     0.512110000000    -0.0913846  
C361     C      0.672740000000     0.706640000000     0.550600000000    -0.00826664 
C362     C      0.605380000000     0.668660000000     0.542290000000    -0.0934281  
C363     C      0.705850000000     0.708740000000     0.546460000000    -0.034359   
C364     C      0.576390000000     0.636360000000     0.538670000000     0.0698809  
C365     C      0.613100000000     0.611730000000     0.555810000000     0.107319   
C366     C      0.736680000000     0.739660000000     0.542390000000    -0.0366269  
C367     C      0.768170000000     0.802340000000     0.532540000000     0.0461087  
C368     C      0.639360000000     0.672780000000     0.552230000000     0.0521232  
C369     C      0.177160000000     0.131610000000     0.414670000000    -0.100816   
C370     C      0.333110000000     0.351760000000     0.410840000000     0.0710245  
C371     C      0.375700000000     0.332560000000     0.415630000000     0.0676747  
C372     C      0.305240000000     0.319400000000     0.407140000000    -0.0915553  
C373     C      0.251310000000     0.251800000000     0.429390000000    -0.0360723  
C374     C      0.222490000000     0.219740000000     0.434510000000    -0.034811   
C375     C      0.281160000000     0.257030000000     0.415240000000    -0.00571424 
C376     C      0.347960000000     0.299190000000     0.413410000000    -0.0901407  
C377     C      0.222550000000     0.191240000000     0.426490000000    -0.00811915 
C378     C      0.174470000000     0.150680000000     0.459090000000    -0.0946054  
C379     C      0.252220000000     0.196100000000     0.412220000000    -0.0351275  
C380     C      0.142480000000     0.121220000000     0.464090000000     0.0702203  
C381     C      0.144950000000     0.101400000000     0.420480000000     0.0975968  
C382     C      0.281250000000     0.228640000000     0.406710000000    -0.0363915  
C383     C      0.311900000000     0.292070000000     0.410810000000     0.04619    
C384     C      0.191560000000     0.157100000000     0.433600000000     0.0512797  
C385     C      0.774080000000     0.951140000000     0.416010000000    -0.1035     
C386     C      0.577290000000     0.961800000000     0.400460000000     0.0701866  
C387     C      0.548160000000     0.905970000000     0.422000000000     0.0617887  
C388     C      0.609660000000     0.961510000000     0.401830000000    -0.0930356  
C389     C      0.673950000000     0.963490000000     0.436950000000    -0.0379317  
C390     C      0.708580000000     0.968020000000     0.442610000000    -0.0339698  
C391     C      0.647800000000     0.936350000000     0.421970000000    -0.00630935 
C392     C      0.580440000000     0.904760000000     0.423720000000    -0.094616   
C393     C      0.718020000000     0.945700000000     0.433160000000    -0.00960974 
C394     C      0.773140000000     0.959370000000     0.465190000000    -0.0955501  
C395     C      0.691760000000     0.918210000000     0.418470000000    -0.034568   
C396     C      0.808580000000     0.965910000000     0.469580000000     0.0711037  
C397     C      0.810000000000     0.958150000000     0.420690000000     0.101268   
C398     C      0.656760000000     0.913380000000     0.413160000000    -0.0370125  
C399     C      0.611950000000     0.933510000000     0.414950000000     0.0455769  
C400     C      0.755440000000     0.951760000000     0.438260000000     0.0542127  
C401     C      0.376790000000     0.075060000000     0.527430000000    -0.101714   
C402     C      0.143200000000     0.999980000000     0.541410000000     0.0710509  
C403     C      0.156670000000     0.015780000000     0.492390000000     0.0719577  
C404     C      0.179190000000     0.009990000000     0.549310000000    -0.093985   
C405     C      0.250700000000     0.008320000000     0.549370000000    -0.0359585  
C406     C      0.286330000000     0.015470000000     0.554220000000    -0.0338835  
C407     C      0.242350000000     0.032890000000     0.536080000000    -0.00677142 
C408     C      0.193020000000     0.026820000000     0.499650000000    -0.0925544  
C409     C      0.314760000000     0.047750000000     0.546540000000    -0.0079459  
C410     C      0.362590000000     0.033370000000     0.567580000000    -0.093811   
C411     C      0.306120000000     0.072850000000     0.534510000000    -0.0347013  
C412     C      0.392150000000     0.030210000000     0.562640000000     0.0765161  
C413     C      0.407490000000     0.072530000000     0.523850000000     0.100986   
C414     C      0.270270000000     0.065340000000     0.528970000000    -0.0365686  
C415     C      0.204500000000     0.023790000000     0.528340000000     0.0492773  
C416     C      0.352420000000     0.053400000000     0.548090000000     0.0531712  
C417     C      0.046770000000     0.851450000000     0.429550000000    -0.102444   
C418     C      0.987360000000     0.638440000000     0.466970000000     0.0720407  
C419     C      0.005560000000     0.642470000000     0.420170000000     0.0744879  
C420     C      0.992410000000     0.671100000000     0.462620000000    -0.10134    
C421     C      0.980280000000     0.729330000000     0.439950000000    -0.0407934  
C422     C      0.983140000000     0.761180000000     0.436380000000    -0.0403148  
C423     C      0.007320000000     0.724100000000     0.431300000000    -0.00273412 
C424     C      0.011100000000     0.675480000000     0.415150000000    -0.0946493  
C425     C      0.013100000000     0.788890000000     0.423950000000    -0.00368005 
C426     C      0.984690000000     0.825450000000     0.413250000000    -0.101306   
C427     C      0.040260000000     0.783810000000     0.415120000000    -0.0355591  
C428     C      0.984090000000     0.854670000000     0.417220000000     0.0682505  
C429     C      0.045720000000     0.881170000000     0.432990000000     0.0991301  
C430     C      0.037260000000     0.751610000000     0.418560000000    -0.0361338  
C431     C      0.004130000000     0.690030000000     0.436420000000     0.0548166  
C432     C      0.015470000000     0.822680000000     0.421230000000     0.0574369  
C433     C      0.905840000000     0.107830000000     0.522180000000    -0.101368   
C434     C      0.960790000000     0.320290000000     0.477730000000     0.0699016  
C435     C      0.940630000000     0.316140000000     0.523770000000     0.0671714  
C436     C      0.955970000000     0.287710000000     0.482520000000    -0.09252    
C437     C      0.968550000000     0.230060000000     0.506290000000    -0.0365299  
C438     C      0.966720000000     0.198630000000     0.511110000000    -0.0351066  
C439     C      0.941090000000     0.235000000000     0.514500000000    -0.00649212 
C440     C      0.935440000000     0.283270000000     0.529250000000    -0.0910201  
C441     C      0.937440000000     0.171060000000     0.524440000000    -0.00847387 
C442     C      0.968130000000     0.136710000000     0.537680000000    -0.09527    
C443     C      0.909750000000     0.175780000000     0.532650000000    -0.0352209  
C444     C      0.969970000000     0.107620000000     0.535780000000     0.0709047  
C445     C      0.908190000000     0.078280000000     0.520840000000     0.0992366  
C446     C      0.911690000000     0.207550000000     0.527910000000    -0.0364376  
C447     C      0.943570000000     0.268810000000     0.508620000000     0.0469476  
C448     C      0.936560000000     0.137850000000     0.529060000000     0.0520514  
C449     C      0.946810000000     0.994620000000     0.799720000000    -0.103149   
C450     C      0.968280000000     0.958650000000     0.629000000000     0.0686677  
C451     C      0.914540000000     0.961230000000     0.616880000000     0.0685139  
C452     C      0.963410000000     0.956420000000     0.658170000000    -0.0939653  
C453     C      0.938740000000     0.935240000000     0.718410000000    -0.0363064  
C454     C      0.938940000000     0.936930000000     0.747910000000    -0.0349916  
C455     C      0.929290000000     0.955540000000     0.698420000000    -0.00671297 
C456     C      0.908870000000     0.959080000000     0.646100000000    -0.0918867  
C457     C      0.929440000000     0.958810000000     0.758290000000    -0.00866544 
C458     C      0.925180000000     0.935530000000     0.809960000000    -0.0946441  
C459     C      0.918360000000     0.977980000000     0.738310000000    -0.0351376  
C460     C      0.931970000000     0.940250000000     0.839210000000     0.0689425  
C461     C      0.953300000000     0.998970000000     0.829320000000     0.0994128  
C462     C      0.918300000000     0.976370000000     0.708730000000    -0.0361979  
C463     C      0.933540000000     0.956680000000     0.667170000000     0.0476423  
C464     C      0.933200000000     0.962900000000     0.789720000000     0.0527249  
C465     C      0.006520000000     0.013180000000     0.301970000000    -0.0993361  
C466     C      0.015400000000     0.961040000000     0.130120000000     0.0713257  
C467     C      0.022870000000     0.016150000000     0.124460000000     0.0728472  
C468     C      0.019600000000     0.961960000000     0.160010000000    -0.0919593  
C469     C      0.007270000000     0.961830000000     0.222280000000    -0.0297655  
C470     C      0.007390000000     0.963190000000     0.251880000000    -0.0298421  
C471     C      0.027100000000     0.991240000000     0.204440000000    -0.00780518 
C472     C      0.026470000000     0.017650000000     0.154200000000    -0.0918372  
C473     C      0.026800000000     0.993990000000     0.264170000000    -0.00952998 
C474     C      0.036530000000     0.980730000000     0.316530000000    -0.0953599  
C475     C      0.047270000000     0.023230000000     0.246740000000    -0.034634   
C476     C      0.031970000000     0.982240000000     0.345190000000     0.0725369  
C477     C      0.001550000000     0.013870000000     0.330860000000     0.108543   
C478     C      0.047810000000     0.021820000000     0.217270000000    -0.0346824  
C479     C      0.024770000000     0.990350000000     0.172550000000     0.049898   
C480     C      0.023430000000     0.996030000000     0.294700000000     0.0541669  
C481     C      0.666240000000     0.660480000000     0.011170000000    -0.108424   
C482     C      0.807120000000     0.869050000000     0.948990000000     0.0719189  
C483     C      0.834050000000     0.837540000000     0.938450000000     0.0691114  
C484     C      0.774380000000     0.839920000000     0.952570000000    -0.0929503  
C485     C      0.721760000000     0.777740000000     0.985310000000    -0.0362421  
C486     C      0.693880000000     0.748090000000     0.997310000000    -0.0340421  
C487     C      0.740010000000     0.777240000000     0.962270000000    -0.00615842 
C488     C      0.801850000000     0.807620000000     0.942830000000    -0.0919275  
C489     C      0.684200000000     0.717270000000     0.986960000000    -0.00950634 
C490     C      0.622070000000     0.678950000000     0.003270000000    -0.0975473  
C491     C      0.701610000000     0.716620000000     0.963600000000    -0.0346853  
C492     C      0.595750000000     0.646380000000     0.011830000000     0.0701929  
C493     C      0.639530000000     0.628290000000     0.020060000000     0.107885   
C494     C      0.729000000000     0.746300000000     0.951210000000    -0.0363506  
C495     C      0.771980000000     0.808490000000     0.951530000000     0.0478119  
C496     C      0.657160000000     0.685410000000     0.001040000000     0.054578   
C497     C      0.174750000000     0.153180000000     0.024350000000    -0.102372   
C498     C      0.376990000000     0.317860000000     0.954470000000     0.0715486  
C499     C      0.333570000000     0.334410000000     0.959450000000     0.0717929  
C500     C      0.352470000000     0.284370000000     0.962930000000    -0.0921114  
C501     C      0.280610000000     0.214290000000     0.969430000000    -0.036954   
C502     C      0.252180000000     0.183900000000     0.979840000000    -0.0329018  
C503     C      0.293530000000     0.243050000000     0.984270000000    -0.00576592 
C504     C      0.308740000000     0.301620000000     0.967970000000    -0.0953221  
C505     C      0.236490000000     0.181740000000     0.005440000000    -0.0100144  
C506     C      0.197470000000     0.119340000000     0.009490000000    -0.0961542  
C507     C      0.251270000000     0.210130000000     0.021190000000    -0.0344998  
C508     C      0.163610000000     0.091500000000     0.012040000000     0.0731095  
C509     C      0.140770000000     0.124570000000     0.027200000000     0.100506   
C510     C      0.279380000000     0.240500000000     0.010630000000    -0.0377646  
C511     C      0.318590000000     0.276540000000     0.971130000000     0.0493556  
C512     C      0.202890000000     0.150980000000     0.013980000000     0.0542834  
C513     C      0.844940000000     0.987850000000     0.063870000000    -0.105062   
C514     C      0.644160000000     0.991040000000     0.034890000000     0.0667877  
C515     C      0.651000000000     0.989240000000     0.985850000000     0.0707048  
C516     C      0.679170000000     0.996890000000     0.042020000000    -0.0920524  
C517     C      0.762290000000     0.030390000000     0.043870000000    -0.0364111  
C518     C      0.796950000000     0.034850000000     0.050650000000    -0.0357187  
C519     C      0.737110000000     0.003700000000     0.027880000000    -0.00687298 
C520     C      0.685820000000     0.994380000000     0.992350000000    -0.0919253  
C521     C      0.806520000000     0.012180000000     0.042110000000    -0.00918185 
C522     C      0.873640000000     0.044020000000     0.040940000000    -0.0988522  
C523     C      0.781320000000     0.985570000000     0.026150000000    -0.0365738  
C524     C      0.905960000000     0.043060000000     0.042850000000     0.0624214  
C525     C      0.877630000000     0.987690000000     0.065860000000     0.104594   
C526     C      0.747080000000     0.981530000000     0.018900000000    -0.0359445  
C527     C      0.700360000000     0.998590000000     0.020640000000     0.0471823  
C528     C      0.842350000000     0.015310000000     0.049810000000     0.0519992  
C529     C      0.113610000000     0.953640000000     0.885800000000    -0.104863   
C530     C      0.321300000000     0.965080000000     0.916980000000     0.0680238  
C531     C      0.314570000000     0.970480000000     0.965130000000     0.0710386  
C532     C      0.285160000000     0.955450000000     0.909940000000    -0.0921352  
C533     C      0.201610000000     0.917880000000     0.908480000000    -0.0359671  
C534     C      0.166110000000     0.911170000000     0.901540000000    -0.0358712  
C535     C      0.225740000000     0.946060000000     0.923420000000    -0.00711652 
C536     C      0.278540000000     0.961510000000     0.958690000000    -0.0925674  
C537     C      0.154700000000     0.933050000000     0.908840000000    -0.00860217 
C538     C      0.088300000000     0.900730000000     0.914550000000    -0.0951158  
C539     C      0.178870000000     0.961110000000     0.923720000000    -0.035636   
C540     C      0.056990000000     0.902940000000     0.915840000000     0.0702034  
C541     C      0.082250000000     0.955310000000     0.887730000000     0.110881   
C542     C      0.213870000000     0.967420000000     0.931090000000    -0.0356001  
C543     C      0.263430000000     0.953820000000     0.930860000000     0.048299   
C544     C      0.117920000000     0.927720000000     0.901400000000     0.0539882  
C545     C      0.894570000000     0.614490000000     0.956970000000    -0.106533   
C546     C      0.940350000000     0.810970000000     0.011440000000     0.0686692  
C547     C      0.916370000000     0.811930000000     0.963590000000     0.0714442  
C548     C      0.929240000000     0.776760000000     0.011370000000    -0.09494    
C549     C      0.894080000000     0.701230000000     0.007920000000    -0.0374375  
C550     C      0.892210000000     0.670160000000     0.006410000000    -0.0361682  
C551     C      0.904740000000     0.725390000000     0.984280000000    -0.00688031 
C552     C      0.904280000000     0.777800000000     0.963010000000    -0.0954733  
C553     C      0.900840000000     0.662770000000     0.981200000000    -0.00977328 
C554     C      0.925400000000     0.625770000000     0.003420000000    -0.0994685  
C555     C      0.909450000000     0.686150000000     0.957090000000    -0.0348284  
C556     C      0.935750000000     0.601960000000     0.000860000000     0.07036    
C557     C      0.904890000000     0.590170000000     0.954900000000     0.103515   
C558     C      0.911520000000     0.717150000000     0.958640000000    -0.036246   
C559     C      0.911780000000     0.760040000000     0.986640000000     0.0497206  
C560     C      0.905780000000     0.633130000000     0.980930000000     0.0555883  
C561     C      0.039160000000     0.338910000000     0.944700000000    -0.105175   
C562     C      0.041040000000     0.148100000000     0.998720000000     0.0743514  
C563     C      0.034110000000     0.149890000000     0.947840000000     0.073911   
C564     C      0.047960000000     0.181200000000     0.997980000000    -0.0936542  
C565     C      0.023020000000     0.237320000000     0.952580000000    -0.0354819  
C566     C      0.021900000000     0.267060000000     0.952750000000    -0.0344189  
C567     C      0.048010000000     0.231470000000     0.970670000000    -0.0072026  
C568     C      0.041020000000     0.183060000000     0.946320000000    -0.0950495  
C569     C      0.045820000000     0.291730000000     0.970940000000    -0.00948067 
C570     C      0.044420000000     0.335970000000     0.996180000000    -0.095449   
C571     C      0.070930000000     0.286050000000     0.989080000000    -0.0343443  
C572     C      0.038200000000     0.363210000000     0.995200000000     0.0686508  
C573     C      0.032740000000     0.366060000000     0.944020000000     0.0992749  
C574     C      0.072030000000     0.256090000000     0.988940000000    -0.0354775  
C575     C      0.046880000000     0.198650000000     0.971620000000     0.0507772  
C576     C      0.043850000000     0.323010000000     0.970750000000     0.0544501  
H1       H      0.018670000000     0.993130000000     0.916420000000     0.196709   
H2       H      0.953940000000     0.035730000000     0.981520000000     0.203749   
H3       H      0.918190000000     0.902960000000     0.994280000000     0.196389   
H4       H      0.051790000000     0.993970000000     0.032240000000     0.196805   
H5       H      0.921120000000     0.023790000000     0.909970000000     0.140415   
H6       H      0.880800000000     0.007740000000     0.986830000000     0.198611   
H7       H      0.860870000000     0.914790000000     0.025890000000     0.133882   
H8       H      0.919170000000     0.892990000000     0.060260000000     0.18985    
H9       H      0.036960000000     0.912080000000     0.028780000000     0.143755   
H10      H      0.105720000000     0.984310000000     0.013860000000     0.195395   
H11      H      0.093580000000     0.044950000000     0.925840000000     0.129575   
H12      H      0.046120000000     0.060560000000     0.894810000000     0.188216   
H13      H      0.948290000000     0.879500000000     0.073070000000     0.200743   
H14      H      0.091650000000     0.956030000000     0.989530000000     0.201058   
H15      H      0.027110000000     0.085180000000     0.892290000000     0.205642   
H16      H      0.877830000000     0.997130000000     0.953440000000     0.195997   
H17      H      0.892740000000     0.930690000000     0.461120000000     0.196162   
H18      H      0.016950000000     0.038380000000     0.425420000000     0.192772   
H19      H      0.989930000000     0.019510000000     0.538840000000     0.192507   
H20      H      0.018310000000     0.930600000000     0.495190000000     0.200791   
H21      H      0.969640000000     0.052660000000     0.399630000000     0.132501   
H22      H      0.992440000000     0.096620000000     0.447460000000     0.200688   
H23      H      0.063880000000     0.077750000000     0.529450000000     0.128438   
H24      H      0.059030000000     0.028480000000     0.570610000000     0.187985   
H25      H      0.988280000000     0.908310000000     0.563660000000     0.138247   
H26      H      0.968980000000     0.862830000000     0.508380000000     0.197448   
H27      H      0.891030000000     0.878640000000     0.434010000000     0.125012   
H28      H      0.889490000000     0.926530000000     0.397550000000     0.187656   
H29      H      0.061560000000     0.994700000000     0.586080000000     0.202454   
H30      H      0.936270000000     0.859400000000     0.527260000000     0.200603   
H31      H      0.902030000000     0.959510000000     0.373020000000     0.207131   
H32      H      0.031450000000     0.104440000000     0.435620000000     0.196227   
H33      H      0.951800000000     0.453890000000     0.036430000000     0.196036   
H34      H      0.922110000000     0.451110000000     0.920440000000     0.194396   
H35      H      0.016000000000     0.571570000000     0.963050000000     0.201179   
H36      H      0.056480000000     0.475170000000     0.968570000000     0.19266    
H37      H      0.856700000000     0.439260000000     0.951770000000     0.128709   
H38      H      0.882740000000     0.491120000000     0.914080000000     0.189191   
H39      H      0.011710000000     0.576420000000     0.894540000000     0.145214   
H40      H      0.082090000000     0.608850000000     0.937330000000     0.198362   
H41      H      0.115150000000     0.529620000000     0.989300000000     0.127396   
H42      H      0.089560000000     0.471020000000     0.021130000000     0.187619   
H43      H      0.965210000000     0.385950000000     0.033260000000     0.140399   
H44      H      0.896090000000     0.369270000000     0.012390000000     0.198841   
H45      H      0.080350000000     0.587180000000     0.910510000000     0.202507   
H46      H      0.076940000000     0.467410000000     0.054410000000     0.204609   
H47      H      0.892190000000     0.391960000000     0.035660000000     0.194628   
H48      H      0.903420000000     0.517920000000     0.886110000000     0.203576   
H49      H      0.911130000000     0.459800000000     0.517920000000     0.195208   
H50      H      0.933900000000     0.458040000000     0.406280000000     0.195219   
H51      H      0.033390000000     0.561870000000     0.466160000000     0.199546   
H52      H      0.019030000000     0.436610000000     0.496910000000     0.203296   
H53      H      0.860780000000     0.445540000000     0.404880000000     0.134724   
H54      H      0.933590000000     0.540460000000     0.388870000000     0.207997   
H55      H      0.060780000000     0.568100000000     0.411390000000     0.130783   
H56      H      0.118420000000     0.563990000000     0.467110000000     0.192397   
H57      H      0.073340000000     0.491520000000     0.541110000000     0.139472   
H58      H      0.013610000000     0.416670000000     0.555210000000     0.199492   
H59      H      0.887400000000     0.390670000000     0.531170000000     0.126654   
H60      H      0.837590000000     0.398020000000     0.488800000000     0.189375   
H61      H      0.127730000000     0.544320000000     0.496510000000     0.200061   
H62      H      0.004540000000     0.437150000000     0.577290000000     0.205474   
H63      H      0.821390000000     0.410030000000     0.458270000000     0.197083   
H64      H      0.943350000000     0.520190000000     0.367100000000     0.199405   
H65      H      0.469990000000     0.947810000000     0.915690000000     0.191952   
H66      H      0.443910000000     0.928430000000     0.029520000000     0.191269   
H67      H      0.572750000000     0.029920000000     0.994850000000     0.196458   
H68      H      0.453650000000     0.042320000000     0.962790000000     0.198627   
H69      H      0.427710000000     0.869440000000     0.019610000000     0.134269   
H70      H      0.523720000000     0.912220000000     0.044500000000     0.206373   
H71      H      0.571530000000     0.030740000000     0.057040000000     0.12592    
H72      H      0.584220000000     0.089130000000     0.025130000000     0.185444   
H73      H      0.532970000000     0.101000000000     0.930190000000     0.142475   
H74      H      0.438870000000     0.057130000000     0.907290000000     0.196783   
H75      H      0.407190000000     0.947280000000     0.887430000000     0.12565    
H76      H      0.393550000000     0.890230000000     0.920590000000     0.186155   
H77      H      0.578350000000     0.119850000000     0.006490000000     0.201631   
H78      H      0.476320000000     0.066680000000     0.891600000000     0.1998     
H79      H      0.393530000000     0.857220000000     0.940440000000     0.201039   
H80      H      0.493450000000     0.910720000000     0.065130000000     0.19652    
H81      H      0.403540000000     0.959380000000     0.427450000000     0.196235   
H82      H      0.447450000000     0.978980000000     0.540390000000     0.194693   
H83      H      0.506160000000     0.924950000000     0.480860000000     0.202643   
H84      H      0.539940000000     0.056640000000     0.453320000000     0.195216   
H85      H      0.373190000000     0.922540000000     0.536950000000     0.127245   
H86      H      0.421560000000     0.908590000000     0.568330000000     0.186783   
H87      H      0.546420000000     0.949550000000     0.549480000000     0.1395     
H88      H      0.586800000000     0.969970000000     0.502860000000     0.197335   
H89      H      0.593090000000     0.038220000000     0.421960000000     0.131375   
H90      H      0.534790000000     0.059270000000     0.390150000000     0.186541   
H91      H      0.416320000000     0.039330000000     0.420450000000     0.142671   
H92      H      0.349200000000     0.968390000000     0.445430000000     0.197044   
H93      H      0.577690000000     0.951140000000     0.472410000000     0.198418   
H94      H      0.502670000000     0.067340000000     0.374130000000     0.20131    
H95      H      0.367030000000     0.003250000000     0.462910000000     0.2016     
H96      H      0.450820000000     0.894570000000     0.578610000000     0.202257   
H97      H      0.433740000000     0.469920000000     0.034090000000     0.202459   
H98      H      0.431610000000     0.453390000000     0.919770000000     0.198105   
H99      H      0.541400000000     0.565630000000     0.963610000000     0.198476   
H100     H      0.534150000000     0.444910000000     0.000810000000     0.202358   
H101     H      0.370630000000     0.481290000000     0.940650000000     0.141425   
H102     H      0.429210000000     0.535880000000     0.898610000000     0.20585    
H103     H      0.556110000000     0.566960000000     0.905800000000     0.130285   
H104     H      0.639530000000     0.549560000000     0.979020000000     0.203434   
H105     H      0.599780000000     0.510690000000     0.035260000000     0.142916   
H106     H      0.546350000000     0.440180000000     0.058640000000     0.197642   
H107     H      0.412020000000     0.398960000000     0.048390000000     0.131183   
H108     H      0.345910000000     0.403260000000     0.007120000000     0.192962   
H109     H      0.623950000000     0.569380000000     0.954080000000     0.195462   
H110     H      0.525600000000     0.441970000000     0.086000000000     0.20371    
H111     H      0.330200000000     0.417700000000     0.977740000000     0.196748   
H112     H      0.431540000000     0.509750000000     0.878100000000     0.200786   
H113     H      0.432220000000     0.445070000000     0.538670000000     0.197317   
H114     H      0.414130000000     0.459570000000     0.421820000000     0.196423   
H115     H      0.511950000000     0.569130000000     0.477190000000     0.194668   
H116     H      0.540750000000     0.466050000000     0.474760000000     0.202007   
H117     H      0.350230000000     0.454720000000     0.452460000000     0.133282   
H118     H      0.383280000000     0.517360000000     0.425510000000     0.19947    
H119     H      0.515780000000     0.586540000000     0.414710000000     0.131988   
H120     H      0.582970000000     0.601170000000     0.446580000000     0.190887   
H121     H      0.602560000000     0.525250000000     0.511290000000     0.140745   
H122     H      0.568290000000     0.457730000000     0.529180000000     0.194792   
H123     H      0.436670000000     0.375660000000     0.530830000000     0.141211   
H124     H      0.366490000000     0.384390000000     0.528810000000     0.196274   
H125     H      0.616100000000     0.594980000000     0.463170000000     0.204201   
H126     H      0.548360000000     0.438660000000     0.559920000000     0.205495   
H127     H      0.369520000000     0.365040000000     0.502140000000     0.201125   
H128     H      0.395690000000     0.512420000000     0.394730000000     0.200669   
H129     H      0.502950000000     0.432030000000     0.614680000000     0.0234349  
H130     H      0.474520000000     0.500090000000     0.838510000000     0.0217175  
H131     H      0.533800000000     0.452010000000     0.711470000000     0.0380197  
H132     H      0.433730000000     0.453920000000     0.753570000000     0.0369935  
H133     H      0.472930000000     0.495040000000     0.788490000000     0.053924   
H134     H      0.435780000000     0.458100000000     0.701560000000     0.0379767  
H135     H      0.496810000000     0.413780000000     0.806850000000     0.0577996  
H136     H      0.501320000000     0.422990000000     0.666640000000     0.0526581  
H137     H      0.476380000000     0.503320000000     0.667050000000     0.0535516  
H138     H      0.531820000000     0.447950000000     0.763800000000     0.0384263  
H139     H      0.477900000000     0.511690000000     0.615380000000     0.0275253  
H140     H      0.479810000000     0.553380000000     0.097140000000     0.0249415  
H141     H      0.484170000000     0.465130000000     0.343200000000     0.0275486  
H142     H      0.440020000000     0.526650000000     0.190080000000     0.0379672  
H143     H      0.531610000000     0.516260000000     0.258350000000     0.0379104  
H144     H      0.491120000000     0.473800000000     0.292640000000     0.0535709  
H145     H      0.536850000000     0.518970000000     0.206850000000     0.0376752  
H146     H      0.460250000000     0.550450000000     0.285920000000     0.0577389  
H147     H      0.480410000000     0.561260000000     0.147600000000     0.0529528  
H148     H      0.497520000000     0.476110000000     0.171770000000     0.0524583  
H149     H      0.434320000000     0.523360000000     0.241770000000     0.0372054  
H150     H      0.496660000000     0.468690000000     0.121870000000     0.0198742  
H151     H      0.401710000000     0.817330000000     0.458020000000     0.0265803  
H152     H      0.457060000000     0.600000000000     0.534320000000     0.0290547  
H153     H      0.353240000000     0.702330000000     0.489950000000     0.0359659  
H154     H      0.462790000000     0.698600000000     0.531460000000     0.0367104  
H155     H      0.441080000000     0.640240000000     0.544710000000     0.05363    
H156     H      0.456870000000     0.747690000000     0.535890000000     0.0376944  
H157     H      0.396100000000     0.641410000000     0.458590000000     0.0574411  
H158     H      0.387620000000     0.759310000000     0.465500000000     0.0527986  
H159     H      0.424200000000     0.772800000000     0.554570000000     0.0517153  
H160     H      0.358870000000     0.652450000000     0.485870000000     0.035854   
H161     H      0.438500000000     0.831270000000     0.546390000000     0.0217693  
H162     H      0.538930000000     0.142120000000     0.495670000000     0.0280763  
H163     H      0.486870000000     0.366130000000     0.422250000000     0.0279387  
H164     H      0.579350000000     0.254870000000     0.466490000000     0.0361751  
H165     H      0.469820000000     0.261170000000     0.429260000000     0.0365736  
H166     H      0.496870000000     0.321390000000     0.413220000000     0.0530437  
H167     H      0.473080000000     0.210470000000     0.424740000000     0.0373883  
H168     H      0.539900000000     0.318530000000     0.499760000000     0.0576193  
H169     H      0.547650000000     0.198450000000     0.490720000000     0.0532701  
H170     H      0.502900000000     0.184660000000     0.403480000000     0.0514331  
H171     H      0.575990000000     0.305760000000     0.471100000000     0.0361199  
H172     H      0.493800000000     0.127670000000     0.409200000000     0.0212307  
H173     H      0.483530000000     0.025980000000     0.833280000000     0.0253677  
H174     H      0.533290000000     0.969130000000     0.613050000000     0.0202111  
H175     H      0.550850000000     0.066080000000     0.748710000000     0.0383282  
H176     H      0.515410000000     0.959750000000     0.706060000000     0.0359833  
H177     H      0.543960000000     0.973340000000     0.663990000000     0.0512442  
H178     H      0.517170000000     0.960130000000     0.758020000000     0.0381386  
H179     H      0.514220000000     0.051030000000     0.656600000000     0.0562888  
H180     H      0.492550000000     0.030700000000     0.782570000000     0.0531794  
H181     H      0.567450000000     0.993130000000     0.802490000000     0.0527148  
H182     H      0.551670000000     0.066670000000     0.696810000000     0.0370645  
H183     H      0.558840000000     0.989570000000     0.853550000000     0.0262868  
H184     H      0.499330000000     0.963750000000     0.119220000000     0.0269443  
H185     H      0.454500000000     0.008270000000     0.335390000000     0.0245185  
H186     H      0.449450000000     0.916870000000     0.205190000000     0.0372522  
H187     H      0.409220000000     0.988260000000     0.243240000000     0.0369165  
H188     H      0.450060000000     0.005910000000     0.284720000000     0.0522191  
H189     H      0.414610000000     0.991650000000     0.191660000000     0.0376936  
H190     H      0.405770000000     0.898790000000     0.295590000000     0.0570802  
H191     H      0.488430000000     0.956380000000     0.169460000000     0.052231   
H192     H      0.391680000000     0.963050000000     0.147660000000     0.0522252  
H193     H      0.445520000000     0.914540000000     0.256840000000     0.0379382  
H194     H      0.403680000000     0.971040000000     0.097090000000     0.027645   
H195     H      0.567510000000     0.907540000000     0.929570000000     0.0254625  
H196     H      0.507500000000     0.635930000000     0.991420000000     0.0280435  
H197     H      0.557480000000     0.805070000000     0.895530000000     0.0374985  
H198     H      0.478190000000     0.715760000000     0.965930000000     0.0373565  
H199     H      0.517050000000     0.691970000000     0.984400000000     0.0524355  
H200     H      0.479960000000     0.769870000000     0.960270000000     0.0392218  
H201     H      0.512140000000     0.689330000000     0.893130000000     0.0566021  
H202     H      0.573910000000     0.857700000000     0.926310000000     0.0521768  
H203     H      0.458840000000     0.797830000000     0.918340000000     0.0521968  
H204     H      0.556160000000     0.750250000000     0.901560000000     0.0374212  
H205     H      0.453380000000     0.847010000000     0.921860000000     0.0197189  
H206     H      0.520470000000     0.118120000000     0.045260000000     0.0214868  
H207     H      0.454820000000     0.336670000000     0.053490000000     0.0266673  
H208     H      0.517270000000     0.209700000000     0.023920000000     0.0370936  
H209     H      0.413880000000     0.219530000000     0.049450000000     0.0373676  
H210     H      0.449040000000     0.281190000000     0.065870000000     0.052421   
H211     H      0.411330000000     0.164300000000     0.056250000000     0.0367798  
H212     H      0.488430000000     0.285560000000     0.984590000000     0.0572548  
H213     H      0.518770000000     0.167540000000     0.055290000000     0.0508746  
H214     H      0.405780000000     0.119830000000     0.030060000000     0.0509753  
H215     H      0.520290000000     0.263970000000     0.018800000000     0.0370788  
H216     H      0.408110000000     0.069270000000     0.022310000000     0.0229775  
H217     H      0.653060000000     0.073640000000     0.487900000000     0.0258881  
H218     H      0.820400000000     0.359830000000     0.423270000000     0.0164631  
H219     H      0.729170000000     0.166290000000     0.441140000000     0.0371968  
H220     H      0.773230000000     0.271980000000     0.487560000000     0.0374177  
H221     H      0.773330000000     0.304390000000     0.436280000000     0.0517998  
H222     H      0.724660000000     0.220220000000     0.508480000000     0.0367254  
H223     H      0.845450000000     0.264870000000     0.435520000000     0.0582818  
H224     H      0.709250000000     0.123870000000     0.478980000000     0.0521476  
H225     H      0.663180000000     0.183370000000     0.499520000000     0.0509447  
H226     H      0.778790000000     0.218030000000     0.421100000000     0.0371976  
H227     H      0.607590000000     0.132180000000     0.509570000000     0.0256592  
H228     H      0.296080000000     0.882280000000     0.469540000000     0.0238461  
H229     H      0.126700000000     0.594240000000     0.530330000000     0.0201965  
H230     H      0.191190000000     0.774700000000     0.459460000000     0.0377507  
H231     H      0.217300000000     0.702140000000     0.534550000000     0.0358974  
H232     H      0.176320000000     0.649010000000     0.522690000000     0.050402   
H233     H      0.266620000000     0.752500000000     0.512800000000     0.0388181  
H234     H      0.106730000000     0.692100000000     0.520360000000     0.0570157  
H235     H      0.242240000000     0.830340000000     0.481510000000     0.0538162  
H236     H      0.291470000000     0.774410000000     0.459500000000     0.0523348  
H237     H      0.141470000000     0.723210000000     0.479920000000     0.0378188  
H238     H      0.345070000000     0.827100000000     0.446950000000     0.0265233  
H239     H      0.886820000000     0.563500000000     0.489710000000     0.0252638  
H240     H      0.581270000000     0.455820000000     0.420310000000     0.0256543  
H241     H      0.770590000000     0.562780000000     0.486760000000     0.0374031  
H242     H      0.699770000000     0.483530000000     0.412250000000     0.0365696  
H243     H      0.640770000000     0.463230000000     0.430040000000     0.0526461  
H244     H      0.754140000000     0.484600000000     0.434790000000     0.0379192  
H245     H      0.684740000000     0.570450000000     0.417600000000     0.0568023  
H246     H      0.835640000000     0.573030000000     0.475010000000     0.0521242  
H247     H      0.764660000000     0.466220000000     0.487370000000     0.0515647  
H248     H      0.715540000000     0.561560000000     0.464230000000     0.0383148  
H249     H      0.815690000000     0.457720000000     0.501200000000     0.0180441  
H250     H      0.128200000000     0.517850000000     0.446510000000     0.0189869  
H251     H      0.320690000000     0.419720000000     0.542520000000     0.0194713  
H252     H      0.229580000000     0.511050000000     0.470160000000     0.0365669  
H253     H      0.216920000000     0.430690000000     0.555080000000     0.0369687  
H254     H      0.263800000000     0.418720000000     0.538500000000     0.0546147  
H255     H      0.163040000000     0.427750000000     0.528940000000     0.0374429  
H256     H      0.317350000000     0.524790000000     0.547850000000     0.0574397  
H257     H      0.181920000000     0.520790000000     0.470670000000     0.048966   
H258     H      0.127410000000     0.412470000000     0.485230000000     0.0521757  
H259     H      0.282850000000     0.514770000000     0.497060000000     0.0388635  
H260     H      0.072800000000     0.410840000000     0.462570000000     0.0249213  
H261     H      0.968300000000     0.442400000000     0.836790000000     0.025209   
H262     H      0.972240000000     0.540450000000     0.594150000000     0.0258343  
H263     H      0.903850000000     0.448330000000     0.747560000000     0.0383264  
H264     H      0.000610000000     0.538420000000     0.689060000000     0.0426794  
H265     H      0.970720000000     0.544930000000     0.644580000000     0.0516478  
H266     H      0.006310000000     0.538390000000     0.741470000000     0.044252   
H267     H      0.920460000000     0.437320000000     0.659800000000     0.056373   
H268     H      0.961860000000     0.444880000000     0.784550000000     0.0532181  
H269     H      0.959480000000     0.537920000000     0.782700000000     0.0522057  
H270     H      0.896700000000     0.449230000000     0.695310000000     0.0367855  
H271     H      0.964860000000     0.534560000000     0.834760000000     0.0210372  
H272     H      0.027700000000     0.452480000000     0.109750000000     0.0242358  
H273     H      0.993830000000     0.516380000000     0.333920000000     0.0211708  
H274     H      0.057100000000     0.473850000000     0.205520000000     0.0381381  
H275     H      0.957510000000     0.478030000000     0.246130000000     0.0364776  
H276     H      0.997790000000     0.516640000000     0.283780000000     0.0533982  
H277     H      0.961200000000     0.483690000000     0.194260000000     0.0376119  
H278     H      0.012160000000     0.429620000000     0.298300000000     0.0586189  
H279     H      0.027560000000     0.446570000000     0.161600000000     0.0523056  
H280     H      0.998880000000     0.524980000000     0.158190000000     0.0470382  
H281     H      0.052980000000     0.467690000000     0.257730000000     0.0383252  
H282     H      0.998340000000     0.529790000000     0.106360000000     0.0207728  
H283     H      0.920520000000     0.337390000000     0.912020000000     0.0253455  
H284     H      0.640670000000     0.125420000000     0.973590000000     0.0205908  
H285     H      0.778060000000     0.252000000000     0.872070000000     0.0385621  
H286     H      0.765650000000     0.179350000000     0.962420000000     0.0372418  
H287     H      0.699090000000     0.171810000000     0.964280000000     0.0518834  
H288     H      0.819560000000     0.234380000000     0.956340000000     0.0382544  
H289     H      0.702360000000     0.128030000000     0.890030000000     0.0570517  
H290     H      0.876270000000     0.278340000000     0.904950000000     0.0518406  
H291     H      0.792160000000     0.297820000000     0.922660000000     0.0537618  
H292     H      0.724440000000     0.196430000000     0.877750000000     0.0381124  
H293     H      0.836130000000     0.355260000000     0.930360000000     0.028019   
H294     H      0.052880000000     0.636330000000     0.031920000000     0.0244857  
H295     H      0.327140000000     0.853550000000     0.972390000000     0.0226818  
H296     H      0.199700000000     0.718100000000     0.072410000000     0.0388999  
H297     H      0.201500000000     0.798070000000     0.990160000000     0.0385351  
H298     H      0.268890000000     0.806560000000     0.981650000000     0.052691   
H299     H      0.148890000000     0.741930000000     0.995620000000     0.0390937  
H300     H      0.270130000000     0.843860000000     0.061190000000     0.0574054  
H301     H      0.096750000000     0.694940000000     0.040190000000     0.0527448  
H302     H      0.181900000000     0.675210000000     0.026020000000     0.0535563  
H303     H      0.251830000000     0.774650000000     0.067510000000     0.0380702  
H304     H      0.138140000000     0.618080000000     0.016860000000     0.0293616  
H305     H      0.832330000000     0.425070000000     0.033930000000     0.0225581  
H306     H      0.573490000000     0.419960000000     0.986280000000     0.0172708  
H307     H      0.729970000000     0.427030000000     0.044780000000     0.0361223  
H308     H      0.731260000000     0.525250000000     0.986540000000     0.0347735  
H309     H      0.627050000000     0.425370000000     0.011780000000     0.0508262  
H310     H      0.787220000000     0.528930000000     0.006250000000     0.0379208  
H311     H      0.689960000000     0.508160000000     0.951400000000     0.0559958  
H312     H      0.776300000000     0.424180000000     0.031990000000     0.05227    
H313     H      0.831970000000     0.531560000000     0.039260000000     0.0510024  
H314     H      0.675220000000     0.421220000000     0.021090000000     0.0352434  
H315     H      0.888750000000     0.531500000000     0.039060000000     0.0269789  
H316     H      0.400070000000     0.566970000000     0.980330000000     0.0268649  
H317     H      0.090630000000     0.448590000000     0.917240000000     0.0249373  
H318     H      0.286610000000     0.566260000000     0.964640000000     0.0379343  
H319     H      0.206680000000     0.465920000000     0.911390000000     0.0364163  
H320     H      0.149560000000     0.453850000000     0.924190000000     0.0517688  
H321     H      0.261880000000     0.470930000000     0.936110000000     0.0359284  
H322     H      0.196150000000     0.559220000000     0.896460000000     0.0584576  
H323     H      0.348180000000     0.570860000000     0.956920000000     0.0517344  
H324     H      0.279270000000     0.468660000000     0.989310000000     0.0498605  
H325     H      0.230910000000     0.561060000000     0.940500000000     0.0393477  
H326     H      0.330810000000     0.465680000000     0.012300000000     0.0206742  
H327     H      0.837090000000     0.829460000000     0.489660000000     0.0278608  
H328     H      0.551320000000     0.634410000000     0.529020000000     0.0179887  
H329     H      0.761350000000     0.739630000000     0.539400000000     0.0370327  
H330     H      0.647470000000     0.736950000000     0.554610000000     0.0360249  
H331     H      0.601480000000     0.690120000000     0.535410000000     0.0511319  
H332     H      0.701260000000     0.791200000000     0.545590000000     0.0372209  
H333     H      0.666570000000     0.645410000000     0.571520000000     0.0570127  
H334     H      0.782100000000     0.780340000000     0.501180000000     0.0515901  
H335     H      0.762910000000     0.833940000000     0.560230000000     0.0512668  
H336     H      0.708190000000     0.686510000000     0.545140000000     0.0361287  
H337     H      0.818820000000     0.884520000000     0.546880000000     0.0257957  
H338     H      0.402980000000     0.336940000000     0.419850000000     0.0231502  
H339     H      0.130430000000     0.118260000000     0.484130000000     0.0269092  
H340     H      0.303630000000     0.231520000000     0.395740000000     0.036583   
H341     H      0.199980000000     0.217420000000     0.444920000000     0.0374904  
H342     H      0.185320000000     0.168770000000     0.475130000000     0.0530479  
H343     H      0.250220000000     0.272510000000     0.437170000000     0.037976   
H344     H      0.190060000000     0.135950000000     0.394780000000     0.0562109  
H345     H      0.354680000000     0.279090000000     0.415850000000     0.0504493  
H346     H      0.278250000000     0.315740000000     0.403240000000     0.0524434  
H347     H      0.253320000000     0.174770000000     0.405760000000     0.0366239  
H348     H      0.326340000000     0.371760000000     0.410160000000     0.0228684  
H349     H      0.524770000000     0.884290000000     0.430870000000     0.0228846  
H350     H      0.820590000000     0.971670000000     0.491090000000     0.0292683  
H351     H      0.637030000000     0.892290000000     0.401580000000     0.0384525  
H352     H      0.728250000000     0.989500000000     0.453800000000     0.037722   
H353     H      0.759560000000     0.960040000000     0.483020000000     0.0535162  
H354     H      0.667590000000     0.981410000000     0.444170000000     0.0401682  
H355     H      0.760520000000     0.945480000000     0.394890000000     0.0577983  
H356     H      0.581220000000     0.882460000000     0.433620000000     0.0517304  
H357     H      0.633240000000     0.983790000000     0.393970000000     0.0556562  
H358     H      0.698310000000     0.900480000000     0.411160000000     0.0374496  
H359     H      0.577050000000     0.984580000000     0.391120000000     0.0220878  
H360     H      0.148940000000     0.018570000000     0.469870000000     0.0304015  
H361     H      0.396570000000     0.011220000000     0.575880000000     0.0139952  
H362     H      0.264320000000     0.084780000000     0.518890000000     0.0386402  
H363     H      0.291200000000     0.994930000000     0.562700000000     0.0385834  
H364     H      0.346120000000     0.017800000000     0.585110000000     0.0528891  
H365     H      0.229560000000     0.983010000000     0.554790000000     0.0390101  
H366     H      0.370530000000     0.091740000000     0.512490000000     0.0555183  
H367     H      0.211910000000     0.037010000000     0.482850000000     0.0542329  
H368     H      0.187210000000     0.007070000000     0.571700000000     0.052713   
H369     H      0.326910000000     0.098160000000     0.528780000000     0.0363926  
H370     H      0.124520000000     0.989620000000     0.558400000000     0.0224214  
H371     H      0.011030000000     0.632100000000     0.403060000000     0.0268746  
H372     H      0.958840000000     0.854760000000     0.411970000000     0.0273039  
H373     H      0.058630000000     0.748360000000     0.411820000000     0.0374663  
H374     H      0.961980000000     0.764180000000     0.443910000000     0.038001   
H375     H      0.960330000000     0.804350000000     0.405410000000     0.0541417  
H376     H      0.956700000000     0.708680000000     0.449550000000     0.0375122  
H377     H      0.071200000000     0.849950000000     0.435220000000     0.0569767  
H378     H      0.019960000000     0.689190000000     0.394500000000     0.0537791  
H379     H      0.987080000000     0.681460000000     0.479810000000     0.0529816  
H380     H      0.063650000000     0.804610000000     0.405450000000     0.0374687  
H381     H      0.977820000000     0.624860000000     0.487550000000     0.027301   
H382     H      0.934310000000     0.326430000000     0.540440000000     0.0274515  
H383     H      0.995760000000     0.108750000000     0.541450000000     0.0235522  
H384     H      0.889980000000     0.210500000000     0.534330000000     0.0379526  
H385     H      0.988260000000     0.195880000000     0.504010000000     0.0372579  
H386     H      0.992120000000     0.158880000000     0.544480000000     0.0526442  
H387     H      0.991790000000     0.250640000000     0.496240000000     0.0364972  
H388     H      0.880830000000     0.108070000000     0.516020000000     0.0566494  
H389     H      0.926020000000     0.269660000000     0.549830000000     0.0517351  
H390     H      0.962170000000     0.277450000000     0.465760000000     0.052094   
H391     H      0.886850000000     0.155070000000     0.542960000000     0.0370237  
H392     H      0.971110000000     0.333920000000     0.457350000000     0.0281602  
H393     H      0.894880000000     0.963140000000     0.601300000000     0.0261325  
H394     H      0.925230000000     0.917760000000     0.853560000000     0.028056   
H395     H      0.910970000000     0.992430000000     0.693960000000     0.0371295  
H396     H      0.947880000000     0.921950000000     0.762530000000     0.0368536  
H397     H      0.913830000000     0.910340000000     0.803290000000     0.0529002  
H398     H      0.946760000000     0.918460000000     0.711250000000     0.0367324  
H399     H      0.953540000000     0.016280000000     0.784270000000     0.0563274  
H400     H      0.885230000000     0.959140000000     0.652090000000     0.0519149  
H401     H      0.983590000000     0.955260000000     0.673570000000     0.0503711  
H402     H      0.910270000000     0.994670000000     0.745520000000     0.0368288  
H403     H      0.992100000000     0.958580000000     0.623390000000     0.0197733  
H404     H      0.023980000000     0.037840000000     0.111360000000     0.0282885  
H405     H      0.041910000000     0.969290000000     0.361390000000     0.0284165  
H406     H      0.064210000000     0.044880000000     0.204550000000     0.0373599  
H407     H      0.991140000000     0.940390000000     0.265000000000     0.0332508  
H408     H      0.050060000000     0.967490000000     0.311470000000     0.0555909  
H409     H      0.990530000000     0.937880000000     0.213350000000     0.0314448  
H410     H      0.997080000000     0.025830000000     0.284980000000     0.0538522  
H411     H      0.029590000000     0.039920000000     0.162610000000     0.0534456  
H412     H      0.018810000000     0.940440000000     0.173110000000     0.0525629  
H413     H      0.062560000000     0.047240000000     0.255920000000     0.0391528  
H414     H      0.011150000000     0.938430000000     0.121480000000     0.0248476  
H415     H      0.857160000000     0.835690000000     0.933720000000     0.0241147  
H416     H      0.568270000000     0.641590000000     0.010690000000     0.0251736  
H417     H      0.741770000000     0.744850000000     0.933210000000     0.036601   
H418     H      0.680900000000     0.749070000000     0.015410000000     0.0369364  
H419     H      0.614500000000     0.698190000000     0.996430000000     0.0548342  
H420     H      0.729820000000     0.800830000000     0.994960000000     0.037705   
H421     H      0.694010000000     0.666100000000     0.011530000000     0.058386   
H422     H      0.801420000000     0.784040000000     0.941420000000     0.0509132  
H423     H      0.751610000000     0.842100000000     0.957620000000     0.0521609  
H424     H      0.694150000000     0.693010000000     0.955080000000     0.0373228  
H425     H      0.808350000000     0.892750000000     0.951780000000     0.0246247  
H426     H      0.325030000000     0.353240000000     0.958300000000     0.021075   
H427     H      0.160860000000     0.067750000000     0.007260000000     0.0224703  
H428     H      0.289330000000     0.262410000000     0.022600000000     0.0378382  
H429     H      0.241260000000     0.162640000000     0.966950000000     0.0385298  
H430     H      0.218950000000     0.116180000000     0.002840000000     0.0531766  
H431     H      0.291020000000     0.215780000000     0.948990000000     0.0387894  
H432     H      0.178660000000     0.177530000000     0.028620000000     0.0563446  
H433     H      0.282260000000     0.296140000000     0.973100000000     0.0521966  
H434     H      0.360610000000     0.265250000000     0.964640000000     0.0541603  
H435     H      0.240440000000     0.209200000000     0.041250000000     0.0360424  
H436     H      0.403860000000     0.323640000000     0.950190000000     0.0304541  
H437     H      0.641020000000     0.986490000000     0.963580000000     0.027195   
H438     H      0.928920000000     0.064660000000     0.033330000000     0.0198467  
H439     H      0.728140000000     0.960690000000     0.006690000000     0.0378582  
H440     H      0.815990000000     0.055530000000     0.062970000000     0.037318   
H441     H      0.872600000000     0.066030000000     0.030540000000     0.0514304  
H442     H      0.755220000000     0.047920000000     0.050880000000     0.0374292  
H443     H      0.821180000000     0.966270000000     0.072500000000     0.0601475  
H444     H      0.701460000000     0.995480000000     0.975240000000     0.052695   
H445     H      0.689410000000     0.999620000000     0.064210000000     0.052544   
H446     H      0.788230000000     0.967900000000     0.019160000000     0.0410386  
H447     H      0.628760000000     0.990000000000     0.052170000000     0.0272178  
H448     H      0.324970000000     0.976020000000     0.987030000000     0.0275502  
H449     H      0.036260000000     0.883840000000     0.929340000000     0.0216189  
H450     H      0.231900000000     0.989420000000     0.942390000000     0.0380589  
H451     H      0.147850000000     0.889340000000     0.890150000000     0.037951   
H452     H      0.090680000000     0.880030000000     0.926480000000     0.0532134  
H453     H      0.210130000000     0.900940000000     0.902460000000     0.0376845  
H454     H      0.135860000000     0.973900000000     0.874330000000     0.060762   
H455     H      0.262530000000     0.960470000000     0.975480000000     0.0530102  
H456     H      0.274510000000     0.950050000000     0.888090000000     0.0526877  
H457     H      0.170540000000     0.978200000000     0.929790000000     0.0419713  
H458     H      0.337130000000     0.966140000000     0.900020000000     0.0280156  
H459     H      0.910590000000     0.824710000000     0.944430000000     0.0259016  
H460     H      0.952330000000     0.598610000000     0.018700000000     0.0258239  
H461     H      0.920440000000     0.735330000000     0.940160000000     0.0371743  
H462     H      0.885160000000     0.652350000000     0.025220000000     0.0354312  
H463     H      0.934650000000     0.639730000000     0.022350000000     0.0523009  
H464     H      0.888110000000     0.706650000000     0.027800000000     0.035937   
H465     H      0.878040000000     0.619250000000     0.939850000000     0.0572294  
H466     H      0.889950000000     0.765650000000     0.943760000000     0.0514501  
H467     H      0.935790000000     0.764000000000     0.030090000000     0.0506097  
H468     H      0.916850000000     0.681380000000     0.937550000000     0.0375924  
H469     H      0.954640000000     0.823270000000     0.030660000000     0.0199285  
H470     H      0.028780000000     0.138480000000     0.927750000000     0.0220018  
H471     H      0.037830000000     0.371470000000     0.015740000000     0.0249791  
H472     H      0.091600000000     0.252170000000     0.003070000000     0.0361323  
H473     H      0.001730000000     0.270450000000     0.939010000000     0.038557   
H474     H      0.048170000000     0.324290000000     0.016830000000     0.0524197  
H475     H      0.003530000000     0.218440000000     0.938860000000     0.0387385  
H476     H      0.040200000000     0.329720000000     0.924790000000     0.0574159  
H477     H      0.040720000000     0.196070000000     0.925470000000     0.0529397  
H478     H      0.052210000000     0.192340000000     0.018030000000     0.0528611  
H479     H      0.089790000000     0.304810000000     0.003170000000     0.0353393  
H480     H      0.040720000000     0.135110000000     0.019710000000     0.0281135  
N1       N      0.486820000000     0.460070000000     0.853090000000    -0.195001   
N2       N      0.489940000000     0.472140000000     0.611000000000    -0.193507   
N3       N      0.468070000000     0.502640000000     0.345260000000    -0.194513   
N4       N      0.487990000000     0.510380000000     0.105610000000    -0.193543   
N5       N      0.435020000000     0.595300000000     0.490420000000    -0.195376   
N6       N      0.422600000000     0.829020000000     0.501340000000    -0.194429   
N7       N      0.507650000000     0.369560000000     0.466490000000    -0.195708   
N8       N      0.514760000000     0.130290000000     0.453070000000    -0.194492   
N9       N      0.518270000000     0.007900000000     0.604460000000    -0.19406    
N10      N      0.520210000000     0.007070000000     0.847340000000    -0.191308   
N11      N      0.433880000000     0.955000000000     0.346560000000    -0.192041   
N12      N      0.452380000000     0.968010000000     0.104150000000    -0.190976   
N13      N      0.503800000000     0.628130000000     0.946450000000    -0.191252   
N14      N      0.510040000000     0.880620000000     0.927490000000    -0.192131   
N15      N      0.475500000000     0.343990000000     0.011970000000    -0.192597   
N16      N      0.464760000000     0.090750000000     0.031710000000    -0.192234   
N17      N      0.862080000000     0.346090000000     0.425430000000    -0.196023   
N18      N      0.625710000000     0.099350000000     0.498130000000    -0.19368    
N19      N      0.086380000000     0.609870000000     0.525890000000    -0.194725   
N20      N      0.325040000000     0.858490000000     0.458390000000    -0.192935   
N21      N      0.597530000000     0.508630000000     0.415440000000    -0.197178   
N22      N      0.854860000000     0.509860000000     0.494740000000    -0.194012   
N23      N      0.352530000000     0.473260000000     0.544340000000    -0.195867   
N24      N      0.096120000000     0.464330000000     0.454160000000    -0.195942   
N25      N      0.947540000000     0.486470000000     0.597380000000    -0.19597    
N26      N      0.966860000000     0.488130000000     0.839750000000    -0.194547   
N27      N      0.000110000000     0.472460000000     0.346670000000    -0.189619   
N28      N      0.012190000000     0.491030000000     0.104030000000    -0.194909   
N29      N      0.636270000000     0.098570000000     0.937530000000    -0.191955   
N30      N      0.881810000000     0.350410000000     0.922580000000    -0.190335   
N31      N      0.333650000000     0.876930000000     0.011210000000    -0.193366   
N32      N      0.092130000000     0.623150000000     0.022980000000    -0.190829   
N33      N      0.599840000000     0.462690000000     0.956070000000    -0.200618   
N34      N      0.864560000000     0.478630000000     0.034770000000    -0.193278   
N35      N      0.108920000000     0.500890000000     0.905340000000    -0.19614    
N36      N      0.369420000000     0.515550000000     0.996790000000    -0.194427   
N37      N      0.581140000000     0.608610000000     0.543100000000    -0.197543   
N38      N      0.832850000000     0.860700000000     0.517980000000    -0.190699   
N39      N      0.126820000000     0.096940000000     0.444820000000    -0.193488   
N40      N      0.367760000000     0.357950000000     0.416720000000    -0.19267    
N41      N      0.827510000000     0.965570000000     0.447810000000    -0.192362   
N42      N      0.547500000000     0.935230000000     0.412350000000    -0.197846   
N43      N      0.412690000000     0.047700000000     0.539760000000    -0.197847   
N44      N      0.131900000000     0.002680000000     0.513130000000    -0.192097   
N45      N      0.013350000000     0.881580000000     0.428870000000    -0.193136   
N46      N      0.993720000000     0.624010000000     0.445920000000    -0.194526   
N47      N      0.941180000000     0.079220000000     0.525640000000    -0.194755   
N48      N      0.953390000000     0.334650000000     0.498200000000    -0.190326   
N49      N      0.946650000000     0.971600000000     0.849360000000    -0.193341   
N50      N      0.944240000000     0.961290000000     0.608350000000    -0.192822   
N51      N      0.013490000000     0.997470000000     0.352500000000    -0.196917   
N52      N      0.016810000000     0.987880000000     0.112410000000    -0.191749   
N53      N      0.603850000000     0.620590000000     0.017260000000    -0.198161   
N54      N      0.837240000000     0.867640000000     0.943850000000    -0.194016   
N55      N      0.134570000000     0.094110000000     0.018650000000    -0.194759   
N56      N      0.368160000000     0.342900000000     0.954570000000    -0.193613   
N57      N      0.907030000000     0.013990000000     0.052620000000    -0.20036    
N58      N      0.630260000000     0.987690000000     0.006930000000    -0.19187    
N59      N      0.056030000000     0.931820000000     0.905420000000    -0.198235   
N60      N      0.335970000000     0.972440000000     0.944420000000    -0.191442   
N61      N      0.927390000000     0.585250000000     0.976340000000    -0.19513    
N62      N      0.935050000000     0.828650000000     0.987340000000    -0.194589   
N63      N      0.030940000000     0.377650000000     0.969590000000    -0.195113   
N64      N      0.032940000000     0.132160000000     0.973900000000    -0.194337   
O1       O      0.098740000000     0.046620000000     0.995900000000    -0.37915    
O2       O      0.073130000000     0.064580000000     0.023970000000    -0.365874   
O3       O      0.965820000000     0.002180000000     0.889390000000    -0.37635    
O4       O      0.950970000000     0.947280000000     0.894570000000    -0.375322   
O5       O      0.012020000000     0.083740000000     0.951670000000    -0.369686   
O6       O      0.022660000000     0.083270000000     0.000120000000    -0.372287   
O7       O      0.058570000000     0.968870000000     0.933690000000    -0.385241   
O8       O      0.004420000000     0.923770000000     0.923650000000    -0.361007   
O9       O      0.104510000000     0.035500000000     0.941300000000    -0.328347   
O10      O      0.091490000000     0.974840000000     0.996650000000    -0.528849   
O11      O      0.028340000000     0.065380000000     0.900680000000    -0.519407   
O12      O      0.941870000000     0.044470000000     0.916880000000    -0.353133   
O13      O      0.033050000000     0.035960000000     0.970900000000    -0.495234   
O14      O      0.009850000000     0.990410000000     0.935150000000    -0.633022   
O15      O      0.960970000000     0.877370000000     0.010160000000    -0.381417   
O16      O      0.946830000000     0.878260000000     0.962150000000    -0.374449   
O17      O      0.926920000000     0.980190000000     0.039180000000    -0.349893   
O18      O      0.964360000000     0.034740000000     0.037460000000    -0.368695   
O19      O      0.872310000000     0.916240000000     0.964720000000    -0.383414   
O20      O      0.898080000000     0.896250000000     0.938580000000    -0.365646   
O21      O      0.001370000000     0.957970000000     0.072730000000    -0.363009   
O22      O      0.016200000000     0.013220000000     0.067360000000    -0.37265    
O23      O      0.942230000000     0.894150000000     0.059880000000    -0.520658   
O24      O      0.031310000000     0.919850000000     0.045260000000    -0.351647   
O25      O      0.858470000000     0.932380000000     0.012820000000    -0.336887   
O26      O      0.885660000000     0.996280000000     0.973460000000    -0.534024   
O27      O      0.937580000000     0.925580000000     0.990840000000    -0.627811   
O28      O      0.961510000000     0.971050000000     0.026230000000    -0.468265   
O29      O      0.008840000000     0.942170000000     0.980840000000    -0.496333   
O30      O      0.962090000000     0.019660000000     0.980500000000    -0.630927   
O31      O      0.032800000000     0.989200000000     0.017430000000    -0.631676   
O32      O      0.938000000000     0.972210000000     0.944400000000    -0.500583   
O33      O      0.975700000000     0.894080000000     0.448380000000    -0.381354   
O34      O      0.032130000000     0.935900000000     0.440160000000    -0.367092   
O35      O      0.883120000000     0.977260000000     0.434310000000    -0.365271   
O36      O      0.872700000000     0.970750000000     0.481470000000    -0.367056   
O37      O      0.977650000000     0.994270000000     0.386870000000    -0.381809   
O38      O      0.028310000000     0.990850000000     0.400380000000    -0.37103    
O39      O      0.886320000000     0.882700000000     0.497400000000    -0.382099   
O40      O      0.874230000000     0.917330000000     0.519020000000    -0.360558   
O41      O      0.901870000000     0.867260000000     0.447510000000    -0.333041   
O42      O      0.951280000000     0.869340000000     0.511060000000    -0.529387   
O43      O      0.903850000000     0.950330000000     0.392420000000    -0.519669   
O44      O      0.944010000000     0.036520000000     0.402340000000    -0.342069   
O45      O      0.969970000000     0.951410000000     0.438510000000    -0.498629   
O46      O      0.917760000000     0.945020000000     0.466270000000    -0.634026   
O47      O      0.979640000000     0.965520000000     0.573430000000    -0.385231   
O48      O      0.927830000000     0.967030000000     0.560490000000    -0.371971   
O49      O      0.073770000000     0.075670000000     0.466270000000    -0.376765   
O50      O      0.082720000000     0.041430000000     0.441350000000    -0.3605     
O51      O      0.979630000000     0.066750000000     0.507480000000    -0.38192    
O52      O      0.924660000000     0.024000000000     0.518760000000    -0.360727   
O53      O      0.075580000000     0.987120000000     0.526170000000    -0.369747   
O54      O      0.086240000000     0.992950000000     0.478940000000    -0.365967   
O55      O      0.052560000000     0.005090000000     0.570650000000    -0.518954   
O56      O      0.012450000000     0.921630000000     0.556030000000    -0.352623   
O57      O      0.053570000000     0.089820000000     0.516240000000    -0.336615   
O58      O      0.012270000000     0.092030000000     0.448580000000    -0.526653   
O59      O      0.987470000000     0.008170000000     0.522060000000    -0.634801   
O60      O      0.039760000000     0.014080000000     0.494300000000    -0.499462   
O61      O      0.952130000000     0.937680000000     0.519610000000    -0.500614   
O62      O      0.005210000000     0.021770000000     0.441010000000    -0.630153   
O63      O      0.006430000000     0.944070000000     0.491490000000    -0.630218   
O64      O      0.951650000000     0.015300000000     0.469370000000    -0.49397    
O65      O      0.023920000000     0.413680000000     0.995180000000    -0.376368   
O66      O      0.009250000000     0.412010000000     0.947520000000    -0.368001   
O67      O      0.888670000000     0.454700000000     0.011770000000    -0.38305    
O68      O      0.925500000000     0.505570000000     0.028840000000    -0.358332   
O69      O      0.894900000000     0.392940000000     0.949700000000    -0.382398   
O70      O      0.938870000000     0.396990000000     0.924030000000    -0.358767   
O71      O      0.015100000000     0.471650000000     0.062420000000    -0.378179   
O72      O      0.997890000000     0.511530000000     0.060530000000    -0.385051   
O73      O      0.983150000000     0.402800000000     0.046040000000    -0.35099    
O74      O      0.071390000000     0.466880000000     0.033930000000    -0.528351   
O75      O      0.898000000000     0.390110000000     0.016910000000    -0.532149   
O76      O      0.855450000000     0.419940000000     0.964690000000    -0.332342   
O77      O      0.965980000000     0.427600000000     0.979070000000    -0.50394    
O78      O      0.962200000000     0.462780000000     0.017990000000    -0.632391   
O79      O      0.079820000000     0.580290000000     0.996380000000    -0.374922   
O80      O      0.034790000000     0.577740000000     0.019640000000    -0.363912   
O81      O      0.965020000000     0.507490000000     0.881590000000    -0.383976   
O82      O      0.976980000000     0.464190000000     0.883150000000    -0.378094   
O83      O      0.940780000000     0.553690000000     0.950280000000    -0.365256   
O84      O      0.958830000000     0.559080000000     0.997270000000    -0.37025    
O85      O      0.084330000000     0.525050000000     0.927350000000    -0.377477   
O86      O      0.048830000000     0.471770000000     0.914490000000    -0.36118    
O87      O      0.077240000000     0.587950000000     0.930410000000    -0.530931   
O88      O      0.117580000000     0.550740000000     0.978860000000    -0.330746   
O89      O      0.991080000000     0.575700000000     0.902850000000    -0.355763   
O90      O      0.904570000000     0.507100000000     0.904920000000    -0.525534   
O91      O      0.008030000000     0.547740000000     0.964820000000    -0.631918   
O92      O      0.011480000000     0.512110000000     0.926100000000    -0.493734   
O93      O      0.033690000000     0.513350000000     0.008350000000    -0.49453    
O94      O      0.940080000000     0.461750000000     0.935560000000    -0.634058   
O95      O      0.036570000000     0.479130000000     0.969830000000    -0.631545   
O96      O      0.937580000000     0.495720000000     0.974250000000    -0.497881   
O97      O      0.954180000000     0.380860000000     0.513360000000    -0.368645   
O98      O      0.968200000000     0.382160000000     0.467800000000    -0.363053   
O99      O      0.873800000000     0.475750000000     0.481810000000    -0.383429   
O100     O      0.914970000000     0.525290000000     0.499220000000    -0.363584   
O101     O      0.879140000000     0.397950000000     0.438990000000    -0.38552    
O102     O      0.922070000000     0.387160000000     0.427740000000    -0.361608   
O103     O      0.953340000000     0.459250000000     0.562420000000    -0.38075    
O104     O      0.960100000000     0.511570000000     0.551380000000    -0.37568    
O105     O      0.907440000000     0.391400000000     0.544300000000    -0.335316   
O106     O      0.000960000000     0.428270000000     0.558900000000    -0.526525   
O107     O      0.841560000000     0.412040000000     0.470950000000    -0.515179   
O108     O      0.875700000000     0.466990000000     0.413870000000    -0.356034   
O109     O      0.932200000000     0.421650000000     0.476180000000    -0.498422   
O110     O      0.929070000000     0.464850000000     0.504590000000    -0.63157    
O111     O      0.069460000000     0.559190000000     0.509620000000    -0.385374   
O112     O      0.026180000000     0.570380000000     0.519260000000    -0.360489   
O113     O      0.996590000000     0.500100000000     0.382430000000    -0.377414   
O114     O      0.988170000000     0.447220000000     0.392940000000    -0.373313   
O115     O      0.992510000000     0.577830000000     0.430250000000    -0.37377    
O116     O      0.980310000000     0.576820000000     0.476320000000    -0.364077   
O117     O      0.063480000000     0.491920000000     0.445280000000    -0.351894   
O118     O      0.034730000000     0.436670000000     0.444910000000    -0.362153   
O119     O      0.110440000000     0.546240000000     0.482490000000    -0.520604   
O120     O      0.074560000000     0.483310000000     0.522980000000    -0.366014   
O121     O      0.040370000000     0.567790000000     0.399050000000    -0.332821   
O122     O      0.946810000000     0.529350000000     0.385330000000    -0.525479   
O123     O      0.016860000000     0.538050000000     0.468090000000    -0.629407   
O124     O      0.019360000000     0.494380000000     0.439890000000    -0.461195   
O125     O      0.003210000000     0.494120000000     0.519290000000    -0.492642   
O126     O      0.945430000000     0.465080000000     0.424910000000    -0.628567   
O127     O      0.006640000000     0.449280000000     0.490590000000    -0.625476   
O128     O      0.942220000000     0.510020000000     0.454050000000    -0.493491   
O129     O      0.390810000000     0.983600000000     0.930900000000    -0.368491   
O130     O      0.382760000000     0.983640000000     0.977870000000    -0.366319   
O131     O      0.474970000000     0.897000000000     0.945840000000    -0.378059   
O132     O      0.531710000000     0.936440000000     0.935230000000    -0.362534   
O133     O      0.385600000000     0.894530000000     0.989050000000    -0.377442   
O134     O      0.380960000000     0.931210000000     0.014180000000    -0.358974   
O135     O      0.486500000000     0.005650000000     0.882520000000    -0.374574   
O136     O      0.533800000000     0.996360000000     0.894900000000    -0.371462   
O137     O      0.413650000000     0.971240000000     0.883150000000    -0.332924   
O138     O      0.456850000000     0.051410000000     0.903590000000    -0.530862   
O139     O      0.402250000000     0.881170000000     0.937290000000    -0.521552   
O140     O      0.442420000000     0.871380000000     0.003930000000    -0.348072   
O141     O      0.424150000000     0.957250000000     0.961450000000    -0.495843   
O142     O      0.473740000000     0.958970000000     0.932860000000    -0.629995   
O143     O      0.583890000000     0.080890000000     0.959220000000    -0.379012   
O144     O      0.590240000000     0.043240000000     0.936810000000    -0.357453   
O145     O      0.487470000000     0.971820000000     0.069000000000    -0.374932   
O146     O      0.437280000000     0.976410000000     0.056430000000    -0.368487   
O147     O      0.577170000000     0.980700000000     0.020640000000    -0.376692   
O148     O      0.586740000000     0.986050000000     0.973180000000    -0.367577   
O149     O      0.499230000000     0.074870000000     0.011610000000    -0.371868   
O150     O      0.440650000000     0.036930000000     0.017870000000    -0.370769   
O151     O      0.571880000000     0.096360000000     0.009860000000    -0.518438   
O152     O      0.522210000000     0.100580000000     0.947930000000    -0.355437   
O153     O      0.561840000000     0.006930000000     0.064660000000    -0.334089   
O154     O      0.510410000000     0.922230000000     0.050320000000    -0.528761   
O155     O      0.547420000000     0.017300000000     0.989780000000    -0.633894   
O156     O      0.497600000000     0.014980000000     0.018260000000    -0.4952     
O157     O      0.515050000000     0.029100000000     0.937150000000    -0.49784    
O158     O      0.456490000000     0.944890000000     0.014110000000    -0.63075    
O159     O      0.463450000000     0.027100000000     0.965860000000    -0.626919   
O160     O      0.507370000000     0.947100000000     0.985200000000    -0.490245   
O161     O      0.492100000000     0.078500000000     0.436120000000    -0.380619   
O162     O      0.512360000000     0.086110000000     0.482760000000    -0.370724   
O163     O      0.360770000000     0.911510000000     0.471600000000    -0.380542   
O164     O      0.383850000000     0.888350000000     0.446110000000    -0.365237   
O165     O      0.406360000000     0.003640000000     0.518800000000    -0.38195    
O166     O      0.462090000000     0.048620000000     0.524470000000    -0.360479   
O167     O      0.452190000000     0.989240000000     0.383640000000    -0.36833    
O168     O      0.435530000000     0.934190000000     0.394140000000    -0.367547   
O169     O      0.422220000000     0.030180000000     0.405100000000    -0.353341   
O170     O      0.510750000000     0.056170000000     0.389550000000    -0.521221   
O171     O      0.366050000000     0.982360000000     0.459780000000    -0.530691   
O172     O      0.362450000000     0.934310000000     0.523860000000    -0.332106   
O173     O      0.451590000000     0.019360000000     0.471970000000    -0.500724   
O174     O      0.423800000000     0.966370000000     0.441260000000    -0.631841   
O175     O      0.525580000000     0.970150000000     0.418460000000    -0.348913   
O176     O      0.490090000000     0.915800000000     0.426770000000    -0.363422   
O177     O      0.501170000000     0.972920000000     0.568240000000    -0.380152   
O178     O      0.513510000000     0.027010000000     0.557200000000    -0.371399   
O179     O      0.449140000000     0.881830000000     0.516870000000    -0.370776   
O180     O      0.433580000000     0.874280000000     0.469480000000    -0.370018   
O181     O      0.588660000000     0.047870000000     0.482430000000    -0.384      
O182     O      0.565860000000     0.071520000000     0.507540000000    -0.368159   
O183     O      0.575460000000     0.966150000000     0.483740000000    -0.532952   
O184     O      0.597660000000     0.023700000000     0.437350000000    -0.339115   
O185     O      0.526560000000     0.928220000000     0.542760000000    -0.356877   
O186     O      0.443280000000     0.908160000000     0.565420000000    -0.519412   
O187     O      0.498120000000     0.941400000000     0.480020000000    -0.624464   
O188     O      0.525990000000     0.995010000000     0.510240000000    -0.502698   
O189     O      0.494180000000     0.982780000000     0.429950000000    -0.462867   
O190     O      0.454880000000     0.978580000000     0.521840000000    -0.635435   
O191     O      0.521380000000     0.034430000000     0.459430000000    -0.629874   
O192     O      0.429120000000     0.927680000000     0.492020000000    -0.496779   
O193     O      0.477080000000     0.391260000000     0.026400000000    -0.366748   
O194     O      0.478660000000     0.386680000000     0.979240000000    -0.360689   
O195     O      0.391550000000     0.479280000000     0.006360000000    -0.391198   
O196     O      0.430580000000     0.534240000000     0.002020000000    -0.357835   
O197     O      0.385880000000     0.396390000000     0.963560000000    -0.37784    
O198     O      0.425700000000     0.385030000000     0.946340000000    -0.363079   
O199     O      0.487390000000     0.478460000000     0.071790000000    -0.377989   
O200     O      0.484760000000     0.526540000000     0.057530000000    -0.378845   
O201     O      0.433590000000     0.406680000000     0.061740000000    -0.345837   
O202     O      0.527170000000     0.442210000000     0.065600000000    -0.525769   
O203     O      0.350160000000     0.417690000000     0.989490000000    -0.513953   
O204     O      0.378470000000     0.466570000000     0.933620000000    -0.361565   
O205     O      0.444510000000     0.426380000000     0.990740000000    -0.49762    
O206     O      0.447310000000     0.473310000000     0.017740000000    -0.625558   
O207     O      0.585290000000     0.568750000000     0.003260000000    -0.38557    
O208     O      0.544170000000     0.580570000000     0.017480000000    -0.36662    
O209     O      0.488610000000     0.492400000000     0.887250000000    -0.375629   
O210     O      0.483370000000     0.441130000000     0.901190000000    -0.375082   
O211     O      0.495380000000     0.577610000000     0.932530000000    -0.367526   
O212     O      0.495020000000     0.583660000000     0.979470000000    -0.362537   
O213     O      0.569300000000     0.491820000000     0.943960000000    -0.353931   
O214     O      0.538320000000     0.436500000000     0.950000000000    -0.36347    
O215     O      0.619690000000     0.552020000000     0.969520000000    -0.518721   
O216     O      0.593620000000     0.496220000000     0.019320000000    -0.369583   
O217     O      0.533190000000     0.562450000000     0.895080000000    -0.332679   
O218     O      0.439980000000     0.522690000000     0.894690000000    -0.524634   
O219     O      0.525460000000     0.542000000000     0.968100000000    -0.632121   
O220     O      0.522560000000     0.494850000000     0.941570000000    -0.471701   
O221     O      0.522500000000     0.504940000000     0.021670000000    -0.49343    
O222     O      0.446600000000     0.463130000000     0.936610000000    -0.627856   
O223     O      0.520620000000     0.456640000000     0.995260000000    -0.630179   
O224     O      0.449170000000     0.511710000000     0.963560000000    -0.495246   
O225     O      0.500320000000     0.402820000000     0.495350000000    -0.37223    
O226     O      0.492820000000     0.409610000000     0.447020000000    -0.372547   
O227     O      0.374420000000     0.451650000000     0.516120000000    -0.383065   
O228     O      0.413490000000     0.498610000000     0.537880000000    -0.361191   
O229     O      0.379750000000     0.399280000000     0.444630000000    -0.381862   
O230     O      0.425820000000     0.400740000000     0.423660000000    -0.363486   
O231     O      0.493050000000     0.455370000000     0.568000000000    -0.376063   
O232     O      0.480900000000     0.498250000000     0.568670000000    -0.377958   
O233     O      0.456010000000     0.388950000000     0.544900000000    -0.345743   
O234     O      0.547250000000     0.447560000000     0.540290000000    -0.525583   
O235     O      0.373560000000     0.385340000000     0.509740000000    -0.530781   
O236     O      0.344700000000     0.432040000000     0.461320000000    -0.334199   
O237     O      0.448060000000     0.424420000000     0.479780000000    -0.502995   
O238     O      0.444460000000     0.455510000000     0.521130000000    -0.633658   
O239     O      0.569380000000     0.569360000000     0.512820000000    -0.379528   
O240     O      0.523190000000     0.567340000000     0.534110000000    -0.368552   
O241     O      0.463400000000     0.517980000000     0.388910000000    -0.373035   
O242     O      0.470620000000     0.472510000000     0.387610000000    -0.378148   
O243     O      0.444360000000     0.563610000000     0.461160000000    -0.370247   
O244     O      0.454710000000     0.558470000000     0.509220000000    -0.371674   
O245     O      0.560100000000     0.527120000000     0.427110000000    -0.357808   
O246     O      0.536950000000     0.473060000000     0.420090000000    -0.365898   
O247     O      0.590860000000     0.586840000000     0.458260000000    -0.520051   
O248     O      0.599090000000     0.522710000000     0.490380000000    -0.36481    
O249     O      0.490670000000     0.582150000000     0.413590000000    -0.336723   
O250     O      0.401090000000     0.517240000000     0.414660000000    -0.53179    
O251     O      0.501690000000     0.545120000000     0.476690000000    -0.634482   
O252     O      0.504480000000     0.513640000000     0.435960000000    -0.480911   
O253     O      0.518640000000     0.502460000000     0.518150000000    -0.498344   
O254     O      0.430730000000     0.467040000000     0.438350000000    -0.635258   
O255     O      0.522150000000     0.471700000000     0.476500000000    -0.629906   
O256     O      0.427590000000     0.497460000000     0.480200000000    -0.501019   
S1       S      0.505410000000     0.412880000000     0.865010000000    -0.0121865  
S2       S      0.444400000000     0.546460000000     0.340740000000    -0.0245593  
S3       S      0.403970000000     0.592880000000     0.438510000000    -0.0239351  
S4       S      0.537970000000     0.370930000000     0.518550000000    -0.0271578  
S5       S      0.498830000000     0.054530000000     0.599560000000    -0.0176173  
S6       S      0.404010000000     0.888970000000     0.353480000000    -0.0172512  
S7       S      0.501240000000     0.626360000000     0.890350000000    -0.0169003  
S8       S      0.505510000000     0.348600000000     0.964280000000    -0.0106017  
S9       S      0.904880000000     0.322570000000     0.417400000000    -0.0159281  
S10      S      0.043610000000     0.634740000000     0.529910000000    -0.0139377  
S11      S      0.623130000000     0.572880000000     0.400220000000    -0.0274747  
S12      S      0.386230000000     0.535890000000     0.557350000000    -0.0140122  
S13      S      0.908250000000     0.420740000000     0.605260000000    -0.0204245  
S14      S      0.013220000000     0.421650000000     0.356650000000    -0.0107521  
S15      S      0.636670000000     0.071660000000     0.891640000000    -0.0185848  
S16      S      0.335790000000     0.900210000000     0.059980000000    -0.0250395  
S17      S      0.635940000000     0.511380000000     0.917970000000    -0.0300237  
S18      S      0.134220000000     0.562670000000     0.882940000000    -0.0327392  
S19      S      0.618230000000     0.579700000000     0.565760000000    -0.0386929  
S20      S      0.129110000000     0.075210000000     0.396530000000    -0.0207211  
S21      S      0.827700000000     0.955080000000     0.393910000000    -0.0269213  
S22      S      0.432710000000     0.095760000000     0.498620000000    -0.025216   
S23      S      0.081630000000     0.911690000000     0.445010000000    -0.0229743  
S24      S      0.872900000000     0.046150000000     0.510230000000    -0.019557   
S25      S      0.969470000000     0.036620000000     0.837640000000    -0.0294642  
S26      S      0.985240000000     0.036910000000     0.337220000000    -0.0428694  
S27      S      0.651920000000     0.601910000000     0.034380000000    -0.0393816  
S28      S      0.110370000000     0.129980000000     0.038380000000    -0.0158471  
S29      S      0.879770000000     0.957180000000     0.084700000000    -0.0295106  
S30      S      0.078830000000     0.986050000000     0.870690000000    -0.0415781  
S31      S      0.887770000000     0.568030000000     0.928080000000    -0.025421   
S32      S      0.028840000000     0.382440000000     0.912690000000    -0.0137204  
Zr1      Zr     0.055310000000     0.997900000000     0.971640000000     1.39063    
Zr2      Zr     0.986240000000     0.027370000000     0.935450000000     1.36982    
Zr3      Zr     0.984750000000     0.933830000000     0.026090000000     1.36503    
Zr4      Zr     0.915650000000     0.964040000000     0.990320000000     1.36362    
Zr5      Zr     0.009010000000     0.026730000000     0.016500000000     1.38316    
Zr6      Zr     0.962060000000     0.934930000000     0.945240000000     1.36586    
Zr7      Zr     0.945050000000     0.910830000000     0.477670000000     1.38228    
Zr8      Zr     0.943660000000     0.986860000000     0.428160000000     1.37851    
Zr9      Zr     0.013580000000     0.972550000000     0.532440000000     1.38794    
Zr10     Zr     0.013200000000     0.048740000000     0.483000000000     1.39434    
Zr11     Zr     0.031520000000     0.986020000000     0.452550000000     1.37555    
Zr12     Zr     0.925630000000     0.973290000000     0.508070000000     1.36425    
Zr13     Zr     0.012040000000     0.454330000000     0.014750000000     1.38828    
Zr14     Zr     0.917400000000     0.437480000000     0.981400000000     1.39219    
Zr15     Zr     0.056550000000     0.537560000000     0.962590000000     1.3903     
Zr16     Zr     0.961890000000     0.520690000000     0.929370000000     1.37977    
Zr17     Zr     0.990180000000     0.453000000000     0.933620000000     1.35975    
Zr18     Zr     0.983620000000     0.522070000000     0.010240000000     1.36146    
Zr19     Zr     0.961120000000     0.435640000000     0.521990000000     1.37551    
Zr20     Zr     0.901810000000     0.451750000000     0.457950000000     1.38655    
Zr21     Zr     0.047330000000     0.507740000000     0.486390000000     1.36396    
Zr22     Zr     0.987470000000     0.523560000000     0.422350000000     1.37454    
Zr23     Zr     0.977260000000     0.435490000000     0.443840000000     1.36316    
Zr24     Zr     0.971340000000     0.523620000000     0.500430000000     1.36172    
Zr25     Zr     0.452960000000     0.998840000000     0.923960000000     1.37425    
Zr26     Zr     0.445360000000     0.918270000000     0.971280000000     1.38638    
Zr27     Zr     0.525450000000     0.055880000000     0.979850000000     1.37937    
Zr28     Zr     0.518610000000     0.975330000000     0.027170000000     1.37969    
Zr29     Zr     0.435320000000     0.984750000000     0.004080000000     1.36427    
Zr30     Zr     0.536160000000     0.989170000000     0.947240000000     1.36438    
Zr31     Zr     0.470900000000     0.020300000000     0.426450000000     1.37938    
Zr32     Zr     0.406070000000     0.965420000000     0.487490000000     1.38947    
Zr33     Zr     0.543340000000     0.995570000000     0.463850000000     1.35847    
Zr34     Zr     0.478890000000     0.941360000000     0.525440000000     1.37671    
Zr35     Zr     0.501590000000     0.032350000000     0.505520000000     1.37632    
Zr36     Zr     0.447790000000     0.928590000000     0.445890000000     1.37038    
Zr37     Zr     0.482590000000     0.446640000000     0.032140000000     1.37902    
Zr38     Zr     0.410580000000     0.453860000000     0.974990000000     1.37703    
Zr39     Zr     0.559490000000     0.514510000000     0.983920000000     1.37374    
Zr40     Zr     0.487300000000     0.521440000000     0.926720000000     1.38103    
Zr41     Zr     0.482130000000     0.436570000000     0.953030000000     1.37599    
Zr42     Zr     0.487070000000     0.531790000000     0.005580000000     1.36422    
Zr43     Zr     0.491600000000     0.443050000000     0.518650000000     1.38346    
Zr44     Zr     0.402280000000     0.438460000000     0.481460000000     1.39032    
Zr45     Zr     0.547520000000     0.530810000000     0.475210000000     1.37383    
Zr46     Zr     0.457720000000     0.526340000000     0.438020000000     1.38391    
Zr47     Zr     0.477890000000     0.453960000000     0.437230000000     1.37429    
Zr48     Zr     0.471320000000     0.515260000000     0.519130000000     1.37863    


