data_structure

_audit_creation_method RASPA-1.0
_audit_creation_date 2023-5-9
_audit_author_name 'Poobodin Mano'

_cell_length_a    55.082
_cell_length_b    55.065
_cell_length_c    55.0814
_cell_angle_alpha 90
_cell_angle_beta  90
_cell_angle_gamma 90
_cell_volume      167067

_symmetry_cell_setting          triclinic
_symmetry_space_group_name_Hall 'P 1'
_symmetry_space_group_name_H-M  'P 1'
_symmetry_Int_Tables_number     1

_symmetry_equiv_pos_as_xyz 'x,y,z'

loop_
_atom_site_label
_atom_site_type_symbol
_atom_site_fract_x
_atom_site_fract_y
_atom_site_fract_z
_atom_site_charge
C1       C      0.965950000000     0.025400000000     0.152170000000     0.382676   
C2       C      0.025190000000     0.964980000000     0.278640000000     0.383827   
C3       C      0.025180000000     0.965330000000     0.152140000000     0.38103    
C4       C      0.963820000000     0.025350000000     0.278730000000     0.384729   
C5       C      0.405290000000     0.465890000000     0.278730000000     0.383752   
C6       C      0.464420000000     0.405530000000     0.152100000000     0.382579   
C7       C      0.466560000000     0.405450000000     0.278680000000     0.384467   
C8       C      0.405130000000     0.465530000000     0.152210000000     0.380916   
C9       C      0.464520000000     0.152170000000     0.025360000000     0.382552   
C10      C      0.405160000000     0.278680000000     0.964460000000     0.384171   
C11      C      0.405170000000     0.152180000000     0.965790000000     0.381167   
C12      C      0.466500000000     0.278780000000     0.025310000000     0.384572   
C13      C      0.025120000000     0.278770000000     0.466370000000     0.383688   
C14      C      0.965860000000     0.152100000000     0.405530000000     0.382674   
C15      C      0.963880000000     0.278720000000     0.405440000000     0.384591   
C16      C      0.025260000000     0.152230000000     0.465020000000     0.381077   
C17      C      0.278480000000     0.025330000000     0.966660000000     0.384714   
C18      C      0.151880000000     0.965080000000     0.025320000000     0.384128   
C19      C      0.278380000000     0.965320000000     0.025490000000     0.381915   
C20      C      0.151960000000     0.025440000000     0.963580000000     0.38605    
C21      C      0.151970000000     0.465800000000     0.405420000000     0.383854   
C22      C      0.278440000000     0.405540000000     0.464170000000     0.383126   
C23      C      0.151860000000     0.405580000000     0.467330000000     0.385083   
C24      C      0.278470000000     0.465600000000     0.405430000000     0.380997   
C25      C      0.309120000000     0.346920000000     0.957030000000    -0.0852342  
C26      C      0.333190000000     0.352710000000     0.463060000000     0.0331487  
C27      C      0.338530000000     0.376990000000     0.468750000000    -0.0845022  
C28      C      0.320170000000     0.394540000000     0.468460000000     0.0668696  
C29      C      0.291120000000     0.364720000000     0.957670000000     0.0667809  
C30      C      0.352340000000     0.333450000000     0.963680000000     0.0333752  
C31      C      0.346300000000     0.309310000000     0.969170000000    -0.0847946  
C32      C      0.364100000000     0.291320000000     0.969040000000     0.0679476  
C33      C      0.394310000000     0.320420000000     0.459620000000     0.068203   
C34      C      0.376800000000     0.338810000000     0.458850000000    -0.0842801  
C35      C      0.346510000000     0.121270000000     0.460340000000    -0.0841582  
C36      C      0.352420000000     0.097350000000     0.966780000000     0.0323727  
C37      C      0.376730000000     0.092180000000     0.972450000000    -0.0839338  
C38      C      0.394240000000     0.110580000000     0.971620000000     0.0667016  
C39      C      0.364280000000     0.139290000000     0.460350000000     0.0647455  
C40      C      0.333260000000     0.078110000000     0.967530000000     0.0335891  
C41      C      0.309120000000     0.084050000000     0.473100000000    -0.0861359  
C42      C      0.291130000000     0.066250000000     0.472590000000     0.0680813  
C43      C      0.320290000000     0.036210000000     0.962770000000     0.0671998  
C44      C      0.338680000000     0.053730000000     0.962430000000    -0.0848266  
C45      C      0.091880000000     0.376970000000     0.961560000000    -0.0843768  
C46      C      0.097000000000     0.352870000000     0.468110000000     0.0338911  
C47      C      0.120820000000     0.347230000000     0.475140000000    -0.0852775  
C48      C      0.138850000000     0.365000000000     0.474650000000     0.0696821  
C49      C      0.110270000000     0.394500000000     0.961930000000     0.0679721  
C50      C      0.077870000000     0.333610000000     0.467360000000     0.0334075  
C51      C      0.053320000000     0.339020000000     0.971570000000    -0.0841326  
C52      C      0.035840000000     0.320600000000     0.970770000000     0.0682002  
C53      C      0.066260000000     0.291390000000     0.462380000000     0.067653   
C54      C      0.084050000000     0.309400000000     0.462380000000    -0.0846184  
C55      C      0.084040000000     0.121420000000     0.469820000000    -0.084077   
C56      C      0.078000000000     0.097400000000     0.463880000000     0.0323085  
C57      C      0.053590000000     0.092140000000     0.958760000000    -0.0839974  
C58      C      0.036110000000     0.110550000000     0.959600000000     0.0666722  
C59      C      0.066260000000     0.139440000000     0.469890000000     0.0647052  
C60      C      0.097130000000     0.078170000000     0.963040000000     0.0339206  
C61      C      0.121060000000     0.083970000000     0.456550000000    -0.0861636  
C62      C      0.139070000000     0.066180000000     0.456930000000     0.0688369  
C63      C      0.110280000000     0.036430000000     0.968580000000     0.0677041  
C64      C      0.091900000000     0.053950000000     0.968990000000    -0.0847729  
C65      C      0.376970000000     0.470290000000     0.338970000000    -0.0843181  
C66      C      0.352530000000     0.465520000000     0.333530000000     0.033704   
C67      C      0.346490000000     0.960410000000     0.309320000000    -0.0847774  
C68      C      0.364270000000     0.960900000000     0.291320000000     0.0680321  
C69      C      0.394470000000     0.469940000000     0.320560000000     0.068229   
C70      C      0.333330000000     0.466000000000     0.352730000000     0.0327653  
C71      C      0.338500000000     0.459830000000     0.376920000000    -0.0839829  
C72      C      0.320090000000     0.460210000000     0.394430000000     0.0668395  
C73      C      0.291360000000     0.971990000000     0.364690000000     0.0651185  
C74      C      0.309390000000     0.972500000000     0.346950000000    -0.0840611  
C75      C      0.083900000000     0.971130000000     0.309250000000    -0.084705   
C76      C      0.078000000000     0.965550000000     0.333400000000     0.0337017  
C77      C      0.053650000000     0.460210000000     0.338770000000    -0.084151   
C78      C      0.036120000000     0.460530000000     0.320390000000     0.0682696  
C79      C      0.066130000000     0.970510000000     0.291260000000     0.0682676  
C80      C      0.097210000000     0.465200000000     0.352610000000     0.0336966  
C81      C      0.121360000000     0.959630000000     0.346700000000    -0.084721   
C82      C      0.139350000000     0.960250000000     0.364480000000     0.0683417  
C83      C      0.110220000000     0.470220000000     0.394480000000     0.0683453  
C84      C      0.091830000000     0.470530000000     0.376960000000    -0.084206   
C85      C      0.053690000000     0.471150000000     0.092110000000    -0.0840119  
C86      C      0.077880000000     0.964970000000     0.097280000000     0.032706   
C87      C      0.083650000000     0.958450000000     0.121210000000    -0.0839858  
C88      C      0.065920000000     0.958940000000     0.139240000000     0.0649953  
C89      C      0.036180000000     0.470770000000     0.110520000000     0.0667279  
C90      C      0.097080000000     0.965460000000     0.078090000000     0.0337972  
C91      C      0.091630000000     0.460700000000     0.053640000000    -0.0844008  
C92      C      0.110050000000     0.461060000000     0.036140000000     0.0682618  
C93      C      0.139290000000     0.970060000000     0.066350000000     0.0683142  
C94      C      0.121290000000     0.970560000000     0.084120000000    -0.0850608  
C95      C      0.376690000000     0.960060000000     0.092110000000    -0.0842081  
C96      C      0.352400000000     0.465700000000     0.097390000000     0.0328251  
C97      C      0.346500000000     0.471740000000     0.121410000000    -0.0841608  
C98      C      0.364260000000     0.471340000000     0.139430000000     0.0649272  
C99      C      0.394190000000     0.960470000000     0.110530000000     0.0668795  
C100     C      0.333220000000     0.965140000000     0.078210000000     0.0330017  
C101     C      0.338500000000     0.970740000000     0.053910000000    -0.0842384  
C102     C      0.320080000000     0.970330000000     0.036420000000     0.0673511  
C103     C      0.291170000000     0.459540000000     0.066360000000     0.0655719  
C104     C      0.309190000000     0.459130000000     0.084120000000    -0.0841772  
C105     C      0.470410000000     0.053860000000     0.338670000000    -0.0843708  
C106     C      0.964370000000     0.078100000000     0.333570000000     0.0335949  
C107     C      0.957440000000     0.083900000000     0.309760000000    -0.0854309  
C108     C      0.957460000000     0.066110000000     0.291740000000     0.0693107  
C109     C      0.469590000000     0.036340000000     0.320300000000     0.0676969  
C110     C      0.965400000000     0.097300000000     0.352740000000     0.0329554  
C111     C      0.460820000000     0.091900000000     0.377230000000    -0.0844258  
C112     C      0.461590000000     0.110290000000     0.394730000000     0.0667226  
C113     C      0.970850000000     0.139430000000     0.364490000000     0.0665257  
C114     C      0.970860000000     0.121430000000     0.346680000000    -0.0852136  
C115     C      0.472210000000     0.346760000000     0.309590000000    -0.0852339  
C116     C      0.465800000000     0.352710000000     0.333510000000     0.0336705  
C117     C      0.960360000000     0.377050000000     0.338720000000    -0.0843388  
C118     C      0.961200000000     0.394550000000     0.320330000000     0.0678462  
C119     C      0.472310000000     0.364560000000     0.291580000000     0.0692627  
C120     C      0.964670000000     0.333540000000     0.352680000000     0.0336825  
C121     C      0.458230000000     0.309620000000     0.346760000000    -0.0852181  
C122     C      0.458110000000     0.291620000000     0.364560000000     0.0692303  
C123     C      0.969290000000     0.320380000000     0.394520000000     0.0677584  
C124     C      0.970140000000     0.338760000000     0.377010000000    -0.0843186  
C125     C      0.459840000000     0.338710000000     0.053850000000    -0.0843674  
C126     C      0.465890000000     0.333600000000     0.078080000000     0.0334857  
C127     C      0.972850000000     0.309780000000     0.083850000000    -0.0852827  
C128     C      0.972860000000     0.291770000000     0.066060000000     0.0692746  
C129     C      0.460670000000     0.320340000000     0.036320000000     0.06764    
C130     C      0.464850000000     0.352760000000     0.097280000000     0.0329728  
C131     C      0.469420000000     0.377260000000     0.091890000000    -0.0844214  
C132     C      0.468650000000     0.394760000000     0.110290000000     0.0668104  
C133     C      0.959440000000     0.364490000000     0.139410000000     0.0665748  
C134     C      0.959420000000     0.346680000000     0.121410000000    -0.0852796  
C135     C      0.971660000000     0.084170000000     0.121460000000    -0.085424   
C136     C      0.965720000000     0.078230000000     0.097410000000     0.0328624  
C137     C      0.460540000000     0.053830000000     0.092090000000    -0.0845605  
C138     C      0.461280000000     0.036300000000     0.110450000000     0.0666441  
C139     C      0.971510000000     0.066350000000     0.139450000000     0.0665755  
C140     C      0.464810000000     0.097430000000     0.078200000000     0.0328326  
C141     C      0.958840000000     0.121480000000     0.084130000000    -0.0853816  
C142     C      0.458970000000     0.139470000000     0.066310000000     0.0664703  
C143     C      0.469240000000     0.110460000000     0.036280000000     0.0666588  
C144     C      0.469990000000     0.092100000000     0.053820000000    -0.0845367  
C145     C      0.965950000000     0.025400000000     0.652170000000     0.382676   
C146     C      0.025190000000     0.964980000000     0.778640000000     0.383825   
C147     C      0.025180000000     0.965330000000     0.652140000000     0.381032   
C148     C      0.963820000000     0.025350000000     0.778730000000     0.384727   
C149     C      0.405290000000     0.465890000000     0.778730000000     0.38375    
C150     C      0.464420000000     0.405530000000     0.652100000000     0.382823   
C151     C      0.466560000000     0.405450000000     0.778680000000     0.384463   
C152     C      0.405130000000     0.465530000000     0.652210000000     0.380918   
C153     C      0.464520000000     0.152170000000     0.525360000000     0.382584   
C154     C      0.405160000000     0.278680000000     0.464460000000     0.384126   
C155     C      0.405170000000     0.152180000000     0.465790000000     0.381135   
C156     C      0.466500000000     0.278780000000     0.525310000000     0.384591   
C157     C      0.025120000000     0.278770000000     0.966370000000     0.383716   
C158     C      0.965860000000     0.152100000000     0.905530000000     0.382669   
C159     C      0.963880000000     0.278720000000     0.905440000000     0.384596   
C160     C      0.025260000000     0.152230000000     0.965020000000     0.381119   
C161     C      0.278480000000     0.025330000000     0.466660000000     0.384681   
C162     C      0.151880000000     0.965080000000     0.525320000000     0.384132   
C163     C      0.278380000000     0.965320000000     0.525490000000     0.381923   
C164     C      0.151960000000     0.025440000000     0.463580000000     0.386015   
C165     C      0.151970000000     0.465800000000     0.905420000000     0.383849   
C166     C      0.278440000000     0.405540000000     0.964170000000     0.383167   
C167     C      0.151860000000     0.405580000000     0.967330000000     0.385114   
C168     C      0.278470000000     0.465600000000     0.905420000000     0.381171   
C169     C      0.309120000000     0.346920000000     0.457030000000    -0.0852858  
C170     C      0.333180000000     0.352710000000     0.963060000000     0.033215   
C171     C      0.338530000000     0.376990000000     0.968750000000    -0.084486   
C172     C      0.320170000000     0.394540000000     0.968470000000     0.0669107  
C173     C      0.291130000000     0.364720000000     0.457670000000     0.0668423  
C174     C      0.352340000000     0.333450000000     0.463680000000     0.0333975  
C175     C      0.346300000000     0.309310000000     0.469170000000    -0.0849421  
C176     C      0.364100000000     0.291320000000     0.469040000000     0.0679555  
C177     C      0.394310000000     0.320420000000     0.959620000000     0.0682351  
C178     C      0.376800000000     0.338810000000     0.958850000000    -0.084239   
C179     C      0.346510000000     0.121270000000     0.960340000000    -0.0841776  
C180     C      0.352420000000     0.097350000000     0.466780000000     0.0323313  
C181     C      0.376730000000     0.092180000000     0.472450000000    -0.0839369  
C182     C      0.394240000000     0.110580000000     0.471630000000     0.0666266  
C183     C      0.364280000000     0.139290000000     0.960350000000     0.0647991  
C184     C      0.333260000000     0.078110000000     0.467530000000     0.0335675  
C185     C      0.309120000000     0.084050000000     0.973090000000    -0.0860883  
C186     C      0.291130000000     0.066250000000     0.972590000000     0.0680873  
C187     C      0.320290000000     0.036210000000     0.462770000000     0.0671357  
C188     C      0.338680000000     0.053730000000     0.462430000000    -0.0848373  
C189     C      0.091890000000     0.376970000000     0.461560000000    -0.0843297  
C190     C      0.097000000000     0.352870000000     0.968110000000     0.0339402  
C191     C      0.120820000000     0.347230000000     0.975140000000    -0.0852678  
C192     C      0.138850000000     0.365000000000     0.974650000000     0.0697257  
C193     C      0.110270000000     0.394500000000     0.461930000000     0.0679257  
C194     C      0.077870000000     0.333610000000     0.967360000000     0.0334379  
C195     C      0.053320000000     0.339020000000     0.471570000000    -0.0841513  
C196     C      0.035840000000     0.320600000000     0.470770000000     0.0681576  
C197     C      0.066260000000     0.291390000000     0.962390000000     0.0677295  
C198     C      0.084050000000     0.309400000000     0.962380000000    -0.0846319  
C199     C      0.084040000000     0.121420000000     0.969820000000    -0.0840392  
C200     C      0.078000000000     0.097400000000     0.963880000000     0.0323298  
C201     C      0.053590000000     0.092140000000     0.458760000000    -0.0840185  
C202     C      0.036110000000     0.110550000000     0.459600000000     0.0666318  
C203     C      0.066260000000     0.139440000000     0.969900000000     0.0647214  
C204     C      0.097130000000     0.078170000000     0.463050000000     0.0338912  
C205     C      0.121060000000     0.083970000000     0.956550000000    -0.0861606  
C206     C      0.139070000000     0.066180000000     0.956930000000     0.0688685  
C207     C      0.110280000000     0.036430000000     0.468580000000     0.0676656  
C208     C      0.091900000000     0.053950000000     0.468990000000    -0.0847989  
C209     C      0.376970000000     0.470290000000     0.838970000000    -0.0843182  
C210     C      0.352530000000     0.465520000000     0.833530000000     0.0336985  
C211     C      0.346490000000     0.960410000000     0.809320000000    -0.0847782  
C212     C      0.364270000000     0.960900000000     0.791320000000     0.068028   
C213     C      0.394470000000     0.469940000000     0.820560000000     0.0682268  
C214     C      0.333330000000     0.466000000000     0.852730000000     0.0327722  
C215     C      0.338500000000     0.459830000000     0.876920000000    -0.0839999  
C216     C      0.320090000000     0.460210000000     0.894430000000     0.0668785  
C217     C      0.291360000000     0.971990000000     0.864690000000     0.0651232  
C218     C      0.309390000000     0.972500000000     0.846950000000    -0.0840696  
C219     C      0.083900000000     0.971130000000     0.809250000000    -0.0847119  
C220     C      0.078000000000     0.965550000000     0.833400000000     0.0337083  
C221     C      0.053650000000     0.460210000000     0.838770000000    -0.0841557  
C222     C      0.036120000000     0.460530000000     0.820390000000     0.068269   
C223     C      0.066130000000     0.970510000000     0.791260000000     0.068266   
C224     C      0.097210000000     0.465200000000     0.852610000000     0.0336701  
C225     C      0.121360000000     0.959630000000     0.846710000000    -0.0846224  
C226     C      0.139350000000     0.960250000000     0.864480000000     0.0682456  
C227     C      0.110220000000     0.470220000000     0.894480000000     0.0683379  
C228     C      0.091830000000     0.470530000000     0.876960000000    -0.0841914  
C229     C      0.053690000000     0.471150000000     0.592110000000    -0.0840023  
C230     C      0.077880000000     0.964970000000     0.597280000000     0.0327233  
C231     C      0.083650000000     0.958450000000     0.621210000000    -0.0839823  
C232     C      0.065920000000     0.958940000000     0.639240000000     0.0650039  
C233     C      0.036180000000     0.470770000000     0.610520000000     0.0667414  
C234     C      0.097080000000     0.965460000000     0.578090000000     0.0338164  
C235     C      0.091630000000     0.460700000000     0.553640000000    -0.0843751  
C236     C      0.110050000000     0.461060000000     0.536140000000     0.068315   
C237     C      0.139290000000     0.970060000000     0.566350000000     0.0683452  
C238     C      0.121290000000     0.970560000000     0.584120000000    -0.0850489  
C239     C      0.376690000000     0.960060000000     0.592110000000    -0.0842002  
C240     C      0.352400000000     0.465700000000     0.597390000000     0.0328421  
C241     C      0.346500000000     0.471740000000     0.621410000000    -0.0841578  
C242     C      0.364260000000     0.471340000000     0.639430000000     0.0649351  
C243     C      0.394190000000     0.960470000000     0.610530000000     0.0668934  
C244     C      0.333220000000     0.965140000000     0.578210000000     0.0330202  
C245     C      0.338500000000     0.970740000000     0.553910000000    -0.0842068  
C246     C      0.320080000000     0.970330000000     0.536420000000     0.0674     
C247     C      0.291170000000     0.459540000000     0.566360000000     0.0656003  
C248     C      0.309190000000     0.459130000000     0.584120000000    -0.0841651  
C249     C      0.470410000000     0.053860000000     0.838670000000    -0.0843692  
C250     C      0.964370000000     0.078100000000     0.833570000000     0.0335878  
C251     C      0.957440000000     0.083900000000     0.809760000000    -0.0854314  
C252     C      0.957460000000     0.066110000000     0.791740000000     0.0693063  
C253     C      0.469590000000     0.036340000000     0.820300000000     0.067694   
C254     C      0.965400000000     0.097300000000     0.852740000000     0.0329709  
C255     C      0.460820000000     0.091900000000     0.877220000000    -0.0843839  
C256     C      0.461590000000     0.110290000000     0.894730000000     0.0666724  
C257     C      0.970850000000     0.139430000000     0.864490000000     0.0665299  
C258     C      0.970870000000     0.121430000000     0.846680000000    -0.0852388  
C259     C      0.472210000000     0.346760000000     0.809590000000    -0.0852348  
C260     C      0.465800000000     0.352710000000     0.833510000000     0.0336652  
C261     C      0.960360000000     0.377050000000     0.838720000000    -0.0843589  
C262     C      0.961200000000     0.394550000000     0.820330000000     0.0678509  
C263     C      0.472310000000     0.364560000000     0.791580000000     0.0692586  
C264     C      0.964670000000     0.333540000000     0.852680000000     0.0336685  
C265     C      0.458230000000     0.309620000000     0.846760000000    -0.0852423  
C266     C      0.458120000000     0.291620000000     0.864560000000     0.0692599  
C267     C      0.969290000000     0.320380000000     0.894520000000     0.0677553  
C268     C      0.970140000000     0.338760000000     0.877010000000    -0.0843123  
C269     C      0.459840000000     0.338710000000     0.553850000000    -0.0843825  
C270     C      0.465890000000     0.333600000000     0.578070000000     0.0335531  
C271     C      0.972850000000     0.309780000000     0.583850000000    -0.0853043  
C272     C      0.972860000000     0.291770000000     0.566060000000     0.0693174  
C273     C      0.460670000000     0.320340000000     0.536320000000     0.0677028  
C274     C      0.464860000000     0.352760000000     0.597280000000     0.0329798  
C275     C      0.469420000000     0.377260000000     0.591890000000    -0.0844024  
C276     C      0.468660000000     0.394760000000     0.610290000000     0.0668048  
C277     C      0.959440000000     0.364490000000     0.639410000000     0.0665745  
C278     C      0.959420000000     0.346680000000     0.621410000000    -0.0852675  
C279     C      0.971660000000     0.084170000000     0.621460000000    -0.0854052  
C280     C      0.965720000000     0.078230000000     0.597410000000     0.0328768  
C281     C      0.460540000000     0.053830000000     0.592090000000    -0.0845524  
C282     C      0.461280000000     0.036300000000     0.610450000000     0.0666579  
C283     C      0.971520000000     0.066350000000     0.639450000000     0.0665534  
C284     C      0.464810000000     0.097430000000     0.578200000000     0.0328511  
C285     C      0.958840000000     0.121480000000     0.584130000000    -0.085368   
C286     C      0.458970000000     0.139470000000     0.566310000000     0.0665007  
C287     C      0.469240000000     0.110460000000     0.536280000000     0.0667057  
C288     C      0.469990000000     0.092100000000     0.553820000000    -0.0845056  
C289     C      0.965950000000     0.525400000000     0.152170000000     0.382694   
C290     C      0.025190000000     0.464980000000     0.278640000000     0.383775   
C291     C      0.025180000000     0.465330000000     0.152140000000     0.380997   
C292     C      0.963820000000     0.525350000000     0.278730000000     0.384755   
C293     C      0.405290000000     0.965890000000     0.278730000000     0.383783   
C294     C      0.464420000000     0.905530000000     0.152100000000     0.382575   
C295     C      0.466560000000     0.905450000000     0.278680000000     0.384464   
C296     C      0.405130000000     0.965530000000     0.152210000000     0.380973   
C297     C      0.464520000000     0.652170000000     0.025360000000     0.382554   
C298     C      0.405160000000     0.778680000000     0.964460000000     0.384166   
C299     C      0.405170000000     0.652180000000     0.965790000000     0.381171   
C300     C      0.466500000000     0.778780000000     0.025310000000     0.384568   
C301     C      0.025120000000     0.778770000000     0.466370000000     0.383686   
C302     C      0.965860000000     0.652100000000     0.405530000000     0.382677   
C303     C      0.963880000000     0.778720000000     0.405440000000     0.3847     
C304     C      0.025260000000     0.652230000000     0.465020000000     0.381084   
C305     C      0.278480000000     0.525330000000     0.966660000000     0.384743   
C306     C      0.151880000000     0.465080000000     0.025320000000     0.384078   
C307     C      0.278380000000     0.465320000000     0.025490000000     0.381886   
C308     C      0.151960000000     0.525440000000     0.963580000000     0.38608    
C309     C      0.151970000000     0.965800000000     0.405420000000     0.383883   
C310     C      0.278440000000     0.905540000000     0.464170000000     0.383121   
C311     C      0.151860000000     0.905580000000     0.467330000000     0.38508    
C312     C      0.278470000000     0.965600000000     0.405430000000     0.381049   
C313     C      0.309120000000     0.846920000000     0.957030000000    -0.0852365  
C314     C      0.333190000000     0.852710000000     0.463060000000     0.0331382  
C315     C      0.338530000000     0.876990000000     0.468750000000    -0.0844949  
C316     C      0.320170000000     0.894540000000     0.468460000000     0.0668642  
C317     C      0.291120000000     0.864720000000     0.957670000000     0.0667761  
C318     C      0.352340000000     0.833450000000     0.963680000000     0.0333725  
C319     C      0.346300000000     0.809310000000     0.969170000000    -0.0847879  
C320     C      0.364100000000     0.791320000000     0.969040000000     0.0679177  
C321     C      0.394310000000     0.820420000000     0.459620000000     0.0682014  
C322     C      0.376800000000     0.838810000000     0.458850000000    -0.0842841  
C323     C      0.346510000000     0.621270000000     0.460340000000    -0.0841832  
C324     C      0.352420000000     0.597350000000     0.966780000000     0.0323911  
C325     C      0.376730000000     0.592180000000     0.972450000000    -0.0839248  
C326     C      0.394240000000     0.610580000000     0.971620000000     0.0667174  
C327     C      0.364280000000     0.639290000000     0.460350000000     0.0647678  
C328     C      0.333260000000     0.578110000000     0.967530000000     0.0336099  
C329     C      0.309120000000     0.584050000000     0.473100000000    -0.0861242  
C330     C      0.291130000000     0.566250000000     0.472590000000     0.0681144  
C331     C      0.320290000000     0.536210000000     0.962770000000     0.0672539  
C332     C      0.338680000000     0.553730000000     0.962430000000    -0.084792   
C333     C      0.091880000000     0.876970000000     0.961560000000    -0.0843775  
C334     C      0.097000000000     0.852870000000     0.468110000000     0.0338879  
C335     C      0.120820000000     0.847230000000     0.475140000000    -0.0852794  
C336     C      0.138850000000     0.865000000000     0.474650000000     0.0696783  
C337     C      0.110270000000     0.894500000000     0.961930000000     0.0679705  
C338     C      0.077870000000     0.833610000000     0.467360000000     0.0334056  
C339     C      0.053320000000     0.839020000000     0.971570000000    -0.0841249  
C340     C      0.035840000000     0.820600000000     0.970770000000     0.0681928  
C341     C      0.066260000000     0.791390000000     0.462380000000     0.0676485  
C342     C      0.084050000000     0.809400000000     0.462380000000    -0.0846218  
C343     C      0.084040000000     0.621420000000     0.469820000000    -0.0840848  
C344     C      0.078000000000     0.597400000000     0.463880000000     0.0323351  
C345     C      0.053590000000     0.592140000000     0.958760000000    -0.0840129  
C346     C      0.036110000000     0.610560000000     0.959600000000     0.0667689  
C347     C      0.066260000000     0.639440000000     0.469890000000     0.0647211  
C348     C      0.097130000000     0.578170000000     0.963040000000     0.0339372  
C349     C      0.121060000000     0.583970000000     0.456550000000    -0.086151   
C350     C      0.139070000000     0.566180000000     0.456930000000     0.0688725  
C351     C      0.110280000000     0.536430000000     0.968580000000     0.0677565  
C352     C      0.091900000000     0.553950000000     0.968990000000    -0.0847372  
C353     C      0.376970000000     0.970300000000     0.338970000000    -0.0843071  
C354     C      0.352530000000     0.965520000000     0.333530000000     0.0337362  
C355     C      0.346490000000     0.460400000000     0.309320000000    -0.084809   
C356     C      0.364270000000     0.460900000000     0.291320000000     0.0680051  
C357     C      0.394470000000     0.969940000000     0.320560000000     0.0682785  
C358     C      0.333330000000     0.966000000000     0.352730000000     0.0327865  
C359     C      0.338500000000     0.959830000000     0.376920000000    -0.0839569  
C360     C      0.320090000000     0.960210000000     0.394430000000     0.06688    
C361     C      0.291360000000     0.471990000000     0.364690000000     0.0650811  
C362     C      0.309390000000     0.472500000000     0.346950000000    -0.0841136  
C363     C      0.083900000000     0.471130000000     0.309250000000    -0.0846833  
C364     C      0.078000000000     0.465550000000     0.333400000000     0.0336409  
C365     C      0.053650000000     0.960210000000     0.338770000000    -0.0841646  
C366     C      0.036120000000     0.960530000000     0.320390000000     0.0683352  
C367     C      0.066130000000     0.470520000000     0.291260000000     0.0681764  
C368     C      0.097210000000     0.965200000000     0.352610000000     0.0337144  
C369     C      0.121360000000     0.459630000000     0.346700000000    -0.0847402  
C370     C      0.139350000000     0.460250000000     0.364480000000     0.0683087  
C371     C      0.110220000000     0.970220000000     0.394480000000     0.0683938  
C372     C      0.091830000000     0.970540000000     0.376960000000    -0.084189   
C373     C      0.053690000000     0.971150000000     0.092110000000    -0.0839786  
C374     C      0.077880000000     0.464970000000     0.097280000000     0.0326822  
C375     C      0.083650000000     0.458450000000     0.121210000000    -0.0840044  
C376     C      0.065920000000     0.458940000000     0.139240000000     0.0649548  
C377     C      0.036180000000     0.970770000000     0.110520000000     0.0667731  
C378     C      0.097080000000     0.465460000000     0.078090000000     0.0337458  
C379     C      0.091630000000     0.960700000000     0.053640000000    -0.0843905  
C380     C      0.110050000000     0.961060000000     0.036140000000     0.0683176  
C381     C      0.139290000000     0.470070000000     0.066350000000     0.0682207  
C382     C      0.121290000000     0.470560000000     0.084120000000    -0.0850433  
C383     C      0.376690000000     0.460060000000     0.092110000000    -0.0842031  
C384     C      0.352400000000     0.965700000000     0.097390000000     0.0329049  
C385     C      0.346510000000     0.971740000000     0.121410000000    -0.0842336  
C386     C      0.364260000000     0.971350000000     0.139420000000     0.0650738  
C387     C      0.394190000000     0.460470000000     0.110530000000     0.0668151  
C388     C      0.333220000000     0.465140000000     0.078210000000     0.0330002  
C389     C      0.338500000000     0.470740000000     0.053910000000    -0.0842829  
C390     C      0.320080000000     0.470330000000     0.036420000000     0.0673121  
C391     C      0.291170000000     0.959530000000     0.066360000000     0.0655732  
C392     C      0.309190000000     0.959130000000     0.084120000000    -0.0841312  
C393     C      0.470410000000     0.553860000000     0.338670000000    -0.0843641  
C394     C      0.964370000000     0.578100000000     0.333570000000     0.0336192  
C395     C      0.957440000000     0.583900000000     0.309760000000    -0.0854197  
C396     C      0.957460000000     0.566110000000     0.291740000000     0.0693464  
C397     C      0.469590000000     0.536340000000     0.320300000000     0.0677631  
C398     C      0.965400000000     0.597300000000     0.352740000000     0.0329702  
C399     C      0.460820000000     0.591900000000     0.377230000000    -0.0844123  
C400     C      0.461590000000     0.610290000000     0.394730000000     0.0667347  
C401     C      0.970840000000     0.639430000000     0.364490000000     0.0665443  
C402     C      0.970860000000     0.621430000000     0.346680000000    -0.0851981  
C403     C      0.472210000000     0.846760000000     0.309590000000    -0.0852361  
C404     C      0.465800000000     0.852710000000     0.333510000000     0.0336661  
C405     C      0.960360000000     0.877050000000     0.338720000000    -0.0843426  
C406     C      0.961200000000     0.894550000000     0.320330000000     0.0678459  
C407     C      0.472310000000     0.864560000000     0.291580000000     0.0692573  
C408     C      0.964670000000     0.833540000000     0.352680000000     0.0336792  
C409     C      0.458230000000     0.809620000000     0.346760000000    -0.0852249  
C410     C      0.458110000000     0.791620000000     0.364560000000     0.0692316  
C411     C      0.969290000000     0.820380000000     0.394520000000     0.0677572  
C412     C      0.970140000000     0.838760000000     0.377010000000    -0.0843219  
C413     C      0.459840000000     0.838710000000     0.053850000000    -0.0843684  
C414     C      0.465890000000     0.833600000000     0.078080000000     0.0334826  
C415     C      0.972850000000     0.809780000000     0.083850000000    -0.0852849  
C416     C      0.972860000000     0.791770000000     0.066060000000     0.069266   
C417     C      0.460670000000     0.820340000000     0.036320000000     0.0676371  
C418     C      0.464850000000     0.852760000000     0.097280000000     0.0329689  
C419     C      0.469420000000     0.877260000000     0.091890000000    -0.0844201  
C420     C      0.468650000000     0.894760000000     0.110290000000     0.0668075  
C421     C      0.959440000000     0.864490000000     0.139410000000     0.0665604  
C422     C      0.959420000000     0.846680000000     0.121410000000    -0.0852606  
C423     C      0.971660000000     0.584170000000     0.121460000000    -0.0854028  
C424     C      0.965710000000     0.578230000000     0.097410000000     0.0328733  
C425     C      0.460540000000     0.553830000000     0.092090000000    -0.0845368  
C426     C      0.461280000000     0.536300000000     0.110450000000     0.0667229  
C427     C      0.971510000000     0.566350000000     0.139450000000     0.0666018  
C428     C      0.464810000000     0.597430000000     0.078200000000     0.0328501  
C429     C      0.958840000000     0.621480000000     0.084130000000    -0.0853843  
C430     C      0.458970000000     0.639470000000     0.066310000000     0.0664766  
C431     C      0.469240000000     0.610460000000     0.036280000000     0.0666736  
C432     C      0.469990000000     0.592100000000     0.053820000000    -0.0845281  
C433     C      0.965950000000     0.525400000000     0.652170000000     0.382695   
C434     C      0.025190000000     0.464980000000     0.778640000000     0.383773   
C435     C      0.025180000000     0.465330000000     0.652140000000     0.380999   
C436     C      0.963820000000     0.525350000000     0.778730000000     0.384753   
C437     C      0.405290000000     0.965890000000     0.778730000000     0.383782   
C438     C      0.464420000000     0.905530000000     0.652100000000     0.382822   
C439     C      0.466560000000     0.905450000000     0.778680000000     0.38446    
C440     C      0.405130000000     0.965530000000     0.652210000000     0.380975   
C441     C      0.464520000000     0.652170000000     0.525360000000     0.382586   
C442     C      0.405160000000     0.778680000000     0.464460000000     0.384123   
C443     C      0.405170000000     0.652180000000     0.465790000000     0.381138   
C444     C      0.466500000000     0.778780000000     0.525310000000     0.384588   
C445     C      0.025120000000     0.778770000000     0.966370000000     0.383711   
C446     C      0.965860000000     0.652100000000     0.905530000000     0.382671   
C447     C      0.963880000000     0.778720000000     0.905440000000     0.384703   
C448     C      0.025260000000     0.652230000000     0.965020000000     0.381126   
C449     C      0.278480000000     0.525330000000     0.466660000000     0.384711   
C450     C      0.151880000000     0.465080000000     0.525320000000     0.384089   
C451     C      0.278380000000     0.465320000000     0.525490000000     0.38189    
C452     C      0.151960000000     0.525440000000     0.463580000000     0.386053   
C453     C      0.151970000000     0.965800000000     0.905420000000     0.383983   
C454     C      0.278440000000     0.905540000000     0.964170000000     0.383165   
C455     C      0.151860000000     0.905580000000     0.967330000000     0.385111   
C456     C      0.278470000000     0.965600000000     0.905420000000     0.381217   
C457     C      0.309120000000     0.846920000000     0.457030000000    -0.0852691  
C458     C      0.333180000000     0.852710000000     0.963060000000     0.0332116  
C459     C      0.338530000000     0.876990000000     0.968750000000    -0.0844845  
C460     C      0.320170000000     0.894540000000     0.968470000000     0.0669082  
C461     C      0.291130000000     0.864720000000     0.457660000000     0.0668065  
C462     C      0.352340000000     0.833450000000     0.463680000000     0.0333984  
C463     C      0.346300000000     0.809310000000     0.469170000000    -0.0849471  
C464     C      0.364100000000     0.791320000000     0.469040000000     0.0679515  
C465     C      0.394310000000     0.820420000000     0.959620000000     0.0682541  
C466     C      0.376800000000     0.838810000000     0.958850000000    -0.0842498  
C467     C      0.346510000000     0.621270000000     0.960340000000    -0.0841748  
C468     C      0.352420000000     0.597350000000     0.466780000000     0.0323581  
C469     C      0.376730000000     0.592180000000     0.472450000000    -0.0839318  
C470     C      0.394240000000     0.610580000000     0.471630000000     0.0666449  
C471     C      0.364280000000     0.639290000000     0.960350000000     0.0648071  
C472     C      0.333260000000     0.578110000000     0.467530000000     0.0335824  
C473     C      0.309120000000     0.584050000000     0.973090000000    -0.0860772  
C474     C      0.291130000000     0.566250000000     0.972590000000     0.0681214  
C475     C      0.320290000000     0.536210000000     0.462770000000     0.0671881  
C476     C      0.338680000000     0.553730000000     0.462430000000    -0.0848005  
C477     C      0.091890000000     0.876970000000     0.461560000000    -0.0843278  
C478     C      0.097000000000     0.852870000000     0.968110000000     0.033941   
C479     C      0.120820000000     0.847230000000     0.975140000000    -0.0852714  
C480     C      0.138850000000     0.865000000000     0.974650000000     0.0697213  
C481     C      0.110270000000     0.894500000000     0.461930000000     0.0679245  
C482     C      0.077870000000     0.833610000000     0.967350000000     0.0334255  
C483     C      0.053320000000     0.839020000000     0.471570000000    -0.0841536  
C484     C      0.035840000000     0.820600000000     0.470770000000     0.0681555  
C485     C      0.066260000000     0.791390000000     0.962380000000     0.0676788  
C486     C      0.084050000000     0.809400000000     0.962380000000    -0.084611   
C487     C      0.084040000000     0.621420000000     0.969820000000    -0.0840475  
C488     C      0.078000000000     0.597400000000     0.963880000000     0.0323561  
C489     C      0.053590000000     0.592140000000     0.458760000000    -0.0840337  
C490     C      0.036110000000     0.610560000000     0.459600000000     0.0667292  
C491     C      0.066260000000     0.639440000000     0.969900000000     0.0647358  
C492     C      0.097130000000     0.578170000000     0.463050000000     0.0339084  
C493     C      0.121060000000     0.583970000000     0.956550000000    -0.0861477  
C494     C      0.139070000000     0.566180000000     0.956930000000     0.0689031  
C495     C      0.110280000000     0.536430000000     0.468580000000     0.0677198  
C496     C      0.091900000000     0.553950000000     0.468990000000    -0.0847633  
C497     C      0.376970000000     0.970300000000     0.838970000000    -0.0843072  
C498     C      0.352530000000     0.965520000000     0.833530000000     0.0337308  
C499     C      0.346490000000     0.460400000000     0.809320000000    -0.0848098  
C500     C      0.364270000000     0.460900000000     0.791320000000     0.0680009  
C501     C      0.394470000000     0.969940000000     0.820560000000     0.0682763  
C502     C      0.333330000000     0.966000000000     0.852730000000     0.032793   
C503     C      0.338500000000     0.959830000000     0.876920000000    -0.0839738  
C504     C      0.320090000000     0.960210000000     0.894430000000     0.0669182  
C505     C      0.291360000000     0.471990000000     0.864690000000     0.0650869  
C506     C      0.309390000000     0.472500000000     0.846950000000    -0.0841222  
C507     C      0.083900000000     0.471130000000     0.809250000000    -0.0846898  
C508     C      0.078000000000     0.465550000000     0.833400000000     0.0336453  
C509     C      0.053650000000     0.960210000000     0.838770000000    -0.0841699  
C510     C      0.036120000000     0.960530000000     0.820390000000     0.068335   
C511     C      0.066130000000     0.470520000000     0.791260000000     0.0681743  
C512     C      0.097210000000     0.965200000000     0.852610000000     0.0336818  
C513     C      0.121360000000     0.459630000000     0.846710000000    -0.0846781  
C514     C      0.139350000000     0.460250000000     0.864480000000     0.0683032  
C515     C      0.110220000000     0.970220000000     0.894480000000     0.0684454  
C516     C      0.091830000000     0.970540000000     0.876960000000    -0.0841984  
C517     C      0.053690000000     0.971150000000     0.592110000000    -0.0839703  
C518     C      0.077880000000     0.464970000000     0.597280000000     0.0326962  
C519     C      0.083650000000     0.458450000000     0.621210000000    -0.084      
C520     C      0.065920000000     0.458940000000     0.639240000000     0.0649614  
C521     C      0.036180000000     0.970770000000     0.610520000000     0.0667875  
C522     C      0.097080000000     0.465460000000     0.578090000000     0.0337728  
C523     C      0.091630000000     0.960700000000     0.553640000000    -0.0843588  
C524     C      0.110050000000     0.961060000000     0.536140000000     0.0683667  
C525     C      0.139290000000     0.470060000000     0.566350000000     0.0682864  
C526     C      0.121290000000     0.470560000000     0.584120000000    -0.0850521  
C527     C      0.376690000000     0.460060000000     0.592110000000    -0.0841951  
C528     C      0.352400000000     0.965700000000     0.597390000000     0.0329218  
C529     C      0.346510000000     0.971740000000     0.621410000000    -0.0842306  
C530     C      0.364260000000     0.971350000000     0.639420000000     0.0650817  
C531     C      0.394190000000     0.460470000000     0.610530000000     0.0668292  
C532     C      0.333220000000     0.465140000000     0.578210000000     0.0330185  
C533     C      0.338500000000     0.470740000000     0.553910000000    -0.0842511  
C534     C      0.320080000000     0.470330000000     0.536420000000     0.0673607  
C535     C      0.291170000000     0.959530000000     0.566360000000     0.0656017  
C536     C      0.309190000000     0.959130000000     0.584120000000    -0.0841197  
C537     C      0.470410000000     0.553860000000     0.838670000000    -0.0843351  
C538     C      0.964370000000     0.578100000000     0.833570000000     0.033614   
C539     C      0.957440000000     0.583900000000     0.809760000000    -0.0854211  
C540     C      0.957460000000     0.566110000000     0.791740000000     0.0693424  
C541     C      0.469590000000     0.536340000000     0.820300000000     0.0677467  
C542     C      0.965400000000     0.597300000000     0.852740000000     0.0329807  
C543     C      0.460820000000     0.591900000000     0.877220000000    -0.0843747  
C544     C      0.461590000000     0.610290000000     0.894730000000     0.0666874  
C545     C      0.970850000000     0.639430000000     0.864490000000     0.066522   
C546     C      0.970870000000     0.621430000000     0.846680000000    -0.0852075  
C547     C      0.472210000000     0.846760000000     0.809590000000    -0.0852356  
C548     C      0.465800000000     0.852710000000     0.833510000000     0.033657   
C549     C      0.960360000000     0.877050000000     0.838720000000    -0.0843634  
C550     C      0.961200000000     0.894550000000     0.820330000000     0.0678511  
C551     C      0.472310000000     0.864560000000     0.791580000000     0.0692521  
C552     C      0.964670000000     0.833540000000     0.852680000000     0.0336613  
C553     C      0.458230000000     0.809620000000     0.846760000000    -0.0852594  
C554     C      0.458120000000     0.791620000000     0.864560000000     0.0692704  
C555     C      0.969290000000     0.820380000000     0.894520000000     0.0677375  
C556     C      0.970140000000     0.838760000000     0.877010000000    -0.0843062  
C557     C      0.459840000000     0.838710000000     0.553850000000    -0.0843845  
C558     C      0.465890000000     0.833600000000     0.578070000000     0.0335514  
C559     C      0.972850000000     0.809780000000     0.583850000000    -0.0852957  
C560     C      0.972860000000     0.791770000000     0.566060000000     0.0693041  
C561     C      0.460670000000     0.820340000000     0.536320000000     0.0677005  
C562     C      0.464860000000     0.852760000000     0.597280000000     0.0329741  
C563     C      0.469420000000     0.877260000000     0.591890000000    -0.0844136  
C564     C      0.468650000000     0.894760000000     0.610290000000     0.0668283  
C565     C      0.959440000000     0.864490000000     0.639410000000     0.0665921  
C566     C      0.959420000000     0.846680000000     0.621410000000    -0.0852821  
C567     C      0.971660000000     0.584170000000     0.621460000000    -0.0853994  
C568     C      0.965710000000     0.578230000000     0.597410000000     0.0328879  
C569     C      0.460540000000     0.553830000000     0.592090000000    -0.0845287  
C570     C      0.461280000000     0.536300000000     0.610450000000     0.0667368  
C571     C      0.971510000000     0.566350000000     0.639450000000     0.0666077  
C572     C      0.464810000000     0.597430000000     0.578200000000     0.0328687  
C573     C      0.958840000000     0.621480000000     0.584130000000    -0.0853752  
C574     C      0.458970000000     0.639470000000     0.566310000000     0.0665071  
C575     C      0.469240000000     0.610460000000     0.536280000000     0.0667206  
C576     C      0.469990000000     0.592100000000     0.553820000000    -0.0844969  
C577     C      0.465950000000     0.025400000000     0.152170000000     0.382642   
C578     C      0.525190000000     0.964980000000     0.278640000000     0.383854   
C579     C      0.525180000000     0.965330000000     0.152140000000     0.381054   
C580     C      0.463820000000     0.025350000000     0.278730000000     0.384692   
C581     C      0.905290000000     0.465890000000     0.278730000000     0.38375    
C582     C      0.964430000000     0.405530000000     0.152100000000     0.382616   
C583     C      0.966560000000     0.405450000000     0.278680000000     0.384497   
C584     C      0.905130000000     0.465530000000     0.152210000000     0.380911   
C585     C      0.964520000000     0.152170000000     0.025360000000     0.382601   
C586     C      0.905160000000     0.278680000000     0.964460000000     0.38417    
C587     C      0.905170000000     0.152180000000     0.965790000000     0.381164   
C588     C      0.966500000000     0.278780000000     0.025310000000     0.384603   
C589     C      0.525120000000     0.278770000000     0.466370000000     0.383716   
C590     C      0.465860000000     0.152100000000     0.405530000000     0.382644   
C591     C      0.463880000000     0.278720000000     0.405440000000     0.384554   
C592     C      0.525260000000     0.152230000000     0.465020000000     0.381098   
C593     C      0.778480000000     0.025330000000     0.966660000000     0.384712   
C594     C      0.651880000000     0.965080000000     0.025320000000     0.384124   
C595     C      0.778380000000     0.965320000000     0.025490000000     0.381915   
C596     C      0.651960000000     0.025440000000     0.963580000000     0.386053   
C597     C      0.651970000000     0.465800000000     0.405420000000     0.383856   
C598     C      0.778440000000     0.405540000000     0.464170000000     0.383124   
C599     C      0.651860000000     0.405580000000     0.467330000000     0.385085   
C600     C      0.778470000000     0.465600000000     0.405430000000     0.380993   
C601     C      0.809120000000     0.346920000000     0.957030000000    -0.0853097  
C602     C      0.833190000000     0.352710000000     0.463060000000     0.0331478  
C603     C      0.838530000000     0.376990000000     0.468750000000    -0.0845043  
C604     C      0.820170000000     0.394540000000     0.468460000000     0.0668682  
C605     C      0.791130000000     0.364720000000     0.957670000000     0.0668616  
C606     C      0.852340000000     0.333450000000     0.963680000000     0.033401   
C607     C      0.846300000000     0.309310000000     0.969170000000    -0.084887   
C608     C      0.864100000000     0.291320000000     0.969040000000     0.0679792  
C609     C      0.894310000000     0.320420000000     0.459620000000     0.0681927  
C610     C      0.876800000000     0.338810000000     0.458850000000    -0.0842736  
C611     C      0.846510000000     0.121270000000     0.460340000000    -0.0840648  
C612     C      0.852420000000     0.097350000000     0.966780000000     0.0323697  
C613     C      0.876730000000     0.092180000000     0.972450000000    -0.0839322  
C614     C      0.894240000000     0.110580000000     0.971620000000     0.0666991  
C615     C      0.864280000000     0.139290000000     0.460350000000     0.0647042  
C616     C      0.833260000000     0.078110000000     0.967530000000     0.0335877  
C617     C      0.809120000000     0.084050000000     0.473100000000    -0.086146   
C618     C      0.791130000000     0.066250000000     0.472590000000     0.0680815  
C619     C      0.820290000000     0.036210000000     0.962770000000     0.0671986  
C620     C      0.838680000000     0.053730000000     0.962430000000    -0.0848283  
C621     C      0.591880000000     0.376970000000     0.961560000000    -0.0843695  
C622     C      0.597000000000     0.352870000000     0.468110000000     0.0339312  
C623     C      0.620820000000     0.347230000000     0.475140000000    -0.0852878  
C624     C      0.638850000000     0.365000000000     0.474650000000     0.0696934  
C625     C      0.610270000000     0.394500000000     0.961930000000     0.0679857  
C626     C      0.577870000000     0.333610000000     0.467360000000     0.0334199  
C627     C      0.553320000000     0.339020000000     0.971570000000    -0.0841007  
C628     C      0.535840000000     0.320600000000     0.970770000000     0.068247   
C629     C      0.566260000000     0.291390000000     0.462380000000     0.0676825  
C630     C      0.584050000000     0.309400000000     0.462380000000    -0.0846055  
C631     C      0.584040000000     0.121420000000     0.469820000000    -0.0840477  
C632     C      0.578000000000     0.097400000000     0.463880000000     0.0323203  
C633     C      0.553590000000     0.092140000000     0.958760000000    -0.0839676  
C634     C      0.536110000000     0.110550000000     0.959600000000     0.0667178  
C635     C      0.566260000000     0.139440000000     0.469900000000     0.0647006  
C636     C      0.597130000000     0.078170000000     0.963050000000     0.033934   
C637     C      0.621060000000     0.083970000000     0.456550000000    -0.0861625  
C638     C      0.639070000000     0.066180000000     0.456930000000     0.0688434  
C639     C      0.610280000000     0.036430000000     0.968580000000     0.0677178  
C640     C      0.591900000000     0.053950000000     0.968990000000    -0.0847686  
C641     C      0.876970000000     0.470290000000     0.338970000000    -0.084314   
C642     C      0.852530000000     0.465520000000     0.333530000000     0.0336947  
C643     C      0.846490000000     0.960410000000     0.309320000000    -0.0847796  
C644     C      0.864270000000     0.960900000000     0.291320000000     0.0680279  
C645     C      0.894470000000     0.469940000000     0.320560000000     0.0682255  
C646     C      0.833330000000     0.466000000000     0.352730000000     0.0327844  
C647     C      0.838500000000     0.459830000000     0.376920000000    -0.0839925  
C648     C      0.820090000000     0.460210000000     0.394430000000     0.0668391  
C649     C      0.791360000000     0.971990000000     0.364690000000     0.0651153  
C650     C      0.809390000000     0.972500000000     0.346950000000    -0.0840637  
C651     C      0.583900000000     0.971120000000     0.309250000000    -0.0846751  
C652     C      0.578000000000     0.965550000000     0.333400000000     0.0337238  
C653     C      0.553650000000     0.460210000000     0.338770000000    -0.0841262  
C654     C      0.536120000000     0.460530000000     0.320390000000     0.0683209  
C655     C      0.566130000000     0.970510000000     0.291260000000     0.0682899  
C656     C      0.597210000000     0.465200000000     0.352610000000     0.0337075  
C657     C      0.621360000000     0.959630000000     0.346710000000    -0.0846538  
C658     C      0.639350000000     0.960250000000     0.364480000000     0.0683466  
C659     C      0.610220000000     0.470220000000     0.394480000000     0.0683575  
C660     C      0.591830000000     0.470530000000     0.376960000000    -0.0841956  
C661     C      0.553690000000     0.471150000000     0.092110000000    -0.0839825  
C662     C      0.577880000000     0.964970000000     0.097280000000     0.0327246  
C663     C      0.583650000000     0.958450000000     0.121210000000    -0.0839749  
C664     C      0.565920000000     0.958940000000     0.139240000000     0.0650256  
C665     C      0.536180000000     0.470770000000     0.110520000000     0.0667748  
C666     C      0.597080000000     0.965460000000     0.078090000000     0.0338132  
C667     C      0.591630000000     0.460700000000     0.053640000000    -0.0843929  
C668     C      0.610050000000     0.461060000000     0.036140000000     0.068275   
C669     C      0.639290000000     0.970060000000     0.066350000000     0.0683208  
C670     C      0.621290000000     0.970560000000     0.084120000000    -0.085058   
C671     C      0.876690000000     0.960060000000     0.092110000000    -0.0842054  
C672     C      0.852400000000     0.465700000000     0.097390000000     0.0328252  
C673     C      0.846500000000     0.471740000000     0.121410000000    -0.0841643  
C674     C      0.864260000000     0.471340000000     0.139430000000     0.0649229  
C675     C      0.894190000000     0.960470000000     0.110530000000     0.0668753  
C676     C      0.833220000000     0.965140000000     0.078210000000     0.0330087  
C677     C      0.838500000000     0.970740000000     0.053910000000    -0.0842437  
C678     C      0.820080000000     0.970330000000     0.036420000000     0.0673512  
C679     C      0.791170000000     0.459530000000     0.066360000000     0.0655325  
C680     C      0.809190000000     0.459130000000     0.084120000000    -0.0841581  
C681     C      0.970410000000     0.053860000000     0.338670000000    -0.0843786  
C682     C      0.464370000000     0.078100000000     0.333570000000     0.0335609  
C683     C      0.457450000000     0.083900000000     0.309760000000    -0.085414   
C684     C      0.457460000000     0.066110000000     0.291740000000     0.069269   
C685     C      0.969590000000     0.036340000000     0.320300000000     0.0677513  
C686     C      0.465400000000     0.097300000000     0.352740000000     0.0329337  
C687     C      0.960820000000     0.091900000000     0.377230000000    -0.0844066  
C688     C      0.961590000000     0.110290000000     0.394730000000     0.0667624  
C689     C      0.470850000000     0.139430000000     0.364490000000     0.0664954  
C690     C      0.470870000000     0.121430000000     0.346680000000    -0.0852525  
C691     C      0.972210000000     0.346760000000     0.309590000000    -0.0851876  
C692     C      0.965800000000     0.352710000000     0.333510000000     0.0336809  
C693     C      0.460350000000     0.377050000000     0.338720000000    -0.0843863  
C694     C      0.461200000000     0.394550000000     0.320330000000     0.06782    
C695     C      0.972320000000     0.364560000000     0.291580000000     0.0692647  
C696     C      0.464670000000     0.333540000000     0.352680000000     0.0336398  
C697     C      0.958230000000     0.309620000000     0.346760000000    -0.0852377  
C698     C      0.958110000000     0.291620000000     0.364560000000     0.0692716  
C699     C      0.469290000000     0.320380000000     0.394520000000     0.0676997  
C700     C      0.470140000000     0.338760000000     0.377010000000    -0.0843261  
C701     C      0.959840000000     0.338710000000     0.053850000000    -0.0843495  
C702     C      0.965890000000     0.333600000000     0.078080000000     0.0335116  
C703     C      0.472850000000     0.309780000000     0.083850000000    -0.085304   
C704     C      0.472860000000     0.291770000000     0.066060000000     0.0692363  
C705     C      0.960670000000     0.320340000000     0.036320000000     0.0676795  
C706     C      0.964860000000     0.352760000000     0.097280000000     0.0329997  
C707     C      0.969420000000     0.377260000000     0.091890000000    -0.0843885  
C708     C      0.968660000000     0.394760000000     0.110290000000     0.066826   
C709     C      0.459440000000     0.364490000000     0.139410000000     0.0665331  
C710     C      0.459420000000     0.346680000000     0.121410000000    -0.0852778  
C711     C      0.471660000000     0.084170000000     0.121460000000    -0.0854158  
C712     C      0.465720000000     0.078230000000     0.097410000000     0.0328251  
C713     C      0.960540000000     0.053830000000     0.092090000000    -0.0845577  
C714     C      0.961280000000     0.036300000000     0.110450000000     0.0667088  
C715     C      0.471520000000     0.066350000000     0.139450000000     0.0665222  
C716     C      0.964810000000     0.097430000000     0.078200000000     0.0328724  
C717     C      0.458840000000     0.121490000000     0.084130000000    -0.0854374  
C718     C      0.958970000000     0.139470000000     0.066310000000     0.0664531  
C719     C      0.969240000000     0.110460000000     0.036280000000     0.0666993  
C720     C      0.969990000000     0.092100000000     0.053820000000    -0.0845166  
C721     C      0.465950000000     0.025400000000     0.652170000000     0.382644   
C722     C      0.525190000000     0.964980000000     0.778640000000     0.383852   
C723     C      0.525180000000     0.965330000000     0.652140000000     0.381056   
C724     C      0.463820000000     0.025350000000     0.778730000000     0.38469    
C725     C      0.905290000000     0.465890000000     0.778730000000     0.383749   
C726     C      0.964430000000     0.405530000000     0.652100000000     0.382618   
C727     C      0.966560000000     0.405450000000     0.778680000000     0.3845     
C728     C      0.905130000000     0.465530000000     0.652210000000     0.380907   
C729     C      0.964520000000     0.152170000000     0.525360000000     0.382622   
C730     C      0.905160000000     0.278680000000     0.464460000000     0.384124   
C731     C      0.905170000000     0.152180000000     0.465790000000     0.381131   
C732     C      0.966500000000     0.278780000000     0.525310000000     0.384622   
C733     C      0.525120000000     0.278770000000     0.966370000000     0.383742   
C734     C      0.465860000000     0.152100000000     0.905530000000     0.38264    
C735     C      0.463880000000     0.278720000000     0.905440000000     0.384555   
C736     C      0.525260000000     0.152230000000     0.965020000000     0.381142   
C737     C      0.778480000000     0.025330000000     0.466660000000     0.384679   
C738     C      0.651880000000     0.965080000000     0.525320000000     0.384133   
C739     C      0.778380000000     0.965320000000     0.525490000000     0.381921   
C740     C      0.651960000000     0.025440000000     0.463580000000     0.386016   
C741     C      0.651970000000     0.465800000000     0.905420000000     0.383851   
C742     C      0.778440000000     0.405540000000     0.964170000000     0.383171   
C743     C      0.651860000000     0.405580000000     0.967330000000     0.385116   
C744     C      0.778470000000     0.465600000000     0.905420000000     0.381167   
C745     C      0.809120000000     0.346920000000     0.457030000000    -0.0852888  
C746     C      0.833180000000     0.352710000000     0.963060000000     0.0332268  
C747     C      0.838530000000     0.376990000000     0.968750000000    -0.0844991  
C748     C      0.820170000000     0.394540000000     0.968470000000     0.066913   
C749     C      0.791130000000     0.364720000000     0.457670000000     0.066839   
C750     C      0.852340000000     0.333450000000     0.463680000000     0.033393   
C751     C      0.846300000000     0.309310000000     0.469170000000    -0.0849432  
C752     C      0.864100000000     0.291320000000     0.469040000000     0.0679516  
C753     C      0.894310000000     0.320420000000     0.959620000000     0.0682327  
C754     C      0.876800000000     0.338810000000     0.958850000000    -0.0842466  
C755     C      0.846510000000     0.121270000000     0.960340000000    -0.0841798  
C756     C      0.852420000000     0.097350000000     0.466780000000     0.0322872  
C757     C      0.876730000000     0.092180000000     0.472450000000    -0.0839167  
C758     C      0.894240000000     0.110580000000     0.471630000000     0.0666147  
C759     C      0.864280000000     0.139290000000     0.960350000000     0.0647948  
C760     C      0.833260000000     0.078110000000     0.467530000000     0.033583   
C761     C      0.809120000000     0.084050000000     0.973090000000    -0.086091   
C762     C      0.791130000000     0.066250000000     0.972590000000     0.0680848  
C763     C      0.820290000000     0.036210000000     0.462770000000     0.0671374  
C764     C      0.838680000000     0.053730000000     0.462430000000    -0.0848465  
C765     C      0.591880000000     0.376970000000     0.461560000000    -0.0843841  
C766     C      0.597000000000     0.352870000000     0.968110000000     0.0339576  
C767     C      0.620820000000     0.347230000000     0.975140000000    -0.0852656  
C768     C      0.638850000000     0.365000000000     0.974650000000     0.0697326  
C769     C      0.610270000000     0.394500000000     0.461930000000     0.0679387  
C770     C      0.577870000000     0.333610000000     0.967360000000     0.033453   
C771     C      0.553320000000     0.339020000000     0.471570000000    -0.0841175  
C772     C      0.535840000000     0.320600000000     0.470770000000     0.0682048  
C773     C      0.566260000000     0.291390000000     0.962390000000     0.0677452  
C774     C      0.584050000000     0.309400000000     0.962380000000    -0.0846135  
C775     C      0.584040000000     0.121420000000     0.969820000000    -0.0840301  
C776     C      0.578000000000     0.097400000000     0.963880000000     0.0323477  
C777     C      0.553590000000     0.092140000000     0.458760000000    -0.083988   
C778     C      0.536110000000     0.110550000000     0.459600000000     0.0666836  
C779     C      0.566260000000     0.139440000000     0.969900000000     0.0647489  
C780     C      0.597130000000     0.078170000000     0.463050000000     0.0339092  
C781     C      0.621060000000     0.083970000000     0.956550000000    -0.0861523  
C782     C      0.639070000000     0.066180000000     0.956930000000     0.0688722  
C783     C      0.610280000000     0.036430000000     0.468580000000     0.0676789  
C784     C      0.591900000000     0.053950000000     0.468990000000    -0.0847924  
C785     C      0.876970000000     0.470290000000     0.838970000000    -0.0843141  
C786     C      0.852530000000     0.465520000000     0.833530000000     0.0336892  
C787     C      0.846490000000     0.960400000000     0.809320000000    -0.0847992  
C788     C      0.864270000000     0.960900000000     0.791320000000     0.068032   
C789     C      0.894470000000     0.469940000000     0.820560000000     0.0682232  
C790     C      0.833330000000     0.466000000000     0.852730000000     0.0327911  
C791     C      0.838500000000     0.459830000000     0.876920000000    -0.0840096  
C792     C      0.820090000000     0.460210000000     0.894430000000     0.0668779  
C793     C      0.791360000000     0.971990000000     0.864690000000     0.0651319  
C794     C      0.809390000000     0.972500000000     0.846950000000    -0.0841007  
C795     C      0.583900000000     0.971120000000     0.809250000000    -0.0846792  
C796     C      0.578000000000     0.965550000000     0.833400000000     0.0337244  
C797     C      0.553650000000     0.460210000000     0.838770000000    -0.0841297  
C798     C      0.536120000000     0.460530000000     0.820390000000     0.0683196  
C799     C      0.566130000000     0.970510000000     0.791260000000     0.0682869  
C800     C      0.597210000000     0.465200000000     0.852610000000     0.0336817  
C801     C      0.621360000000     0.959630000000     0.846710000000    -0.0846192  
C802     C      0.639350000000     0.960250000000     0.864480000000     0.0682514  
C803     C      0.610220000000     0.470220000000     0.894480000000     0.0683503  
C804     C      0.591830000000     0.470530000000     0.876960000000    -0.0841813  
C805     C      0.553690000000     0.471150000000     0.592110000000    -0.0839706  
C806     C      0.577880000000     0.964970000000     0.597280000000     0.0327478  
C807     C      0.583650000000     0.958450000000     0.621210000000    -0.0839727  
C808     C      0.565920000000     0.958940000000     0.639240000000     0.0650335  
C809     C      0.536180000000     0.470770000000     0.610520000000     0.0667872  
C810     C      0.597080000000     0.965460000000     0.578090000000     0.0338234  
C811     C      0.591630000000     0.460700000000     0.553640000000    -0.0843717  
C812     C      0.610050000000     0.461060000000     0.536140000000     0.0683308  
C813     C      0.639290000000     0.970060000000     0.566350000000     0.0683367  
C814     C      0.621290000000     0.970560000000     0.584120000000    -0.0850168  
C815     C      0.876690000000     0.960060000000     0.592110000000    -0.0841974  
C816     C      0.852400000000     0.465700000000     0.597390000000     0.0328248  
C817     C      0.846500000000     0.471740000000     0.621410000000    -0.0841535  
C818     C      0.864260000000     0.471340000000     0.639430000000     0.0649266  
C819     C      0.894190000000     0.960470000000     0.610530000000     0.0668895  
C820     C      0.833220000000     0.965140000000     0.578210000000     0.0330271  
C821     C      0.838500000000     0.970740000000     0.553910000000    -0.0842119  
C822     C      0.820080000000     0.970330000000     0.536420000000     0.0674001  
C823     C      0.791170000000     0.459530000000     0.566360000000     0.0655986  
C824     C      0.809190000000     0.459130000000     0.584120000000    -0.0842424  
C825     C      0.970410000000     0.053860000000     0.838670000000    -0.0843769  
C826     C      0.464370000000     0.078100000000     0.833570000000     0.0335528  
C827     C      0.457450000000     0.083900000000     0.809760000000    -0.085414   
C828     C      0.457460000000     0.066110000000     0.791740000000     0.0692644  
C829     C      0.969590000000     0.036340000000     0.820300000000     0.0677486  
C830     C      0.465400000000     0.097300000000     0.852740000000     0.0329514  
C831     C      0.960820000000     0.091900000000     0.877220000000    -0.0843617  
C832     C      0.961590000000     0.110290000000     0.894730000000     0.0667065  
C833     C      0.470850000000     0.139430000000     0.864490000000     0.0664925  
C834     C      0.470870000000     0.121430000000     0.846680000000    -0.0852626  
C835     C      0.972210000000     0.346760000000     0.809590000000    -0.0852698  
C836     C      0.965800000000     0.352710000000     0.833510000000     0.0337087  
C837     C      0.460350000000     0.377050000000     0.838720000000    -0.0843864  
C838     C      0.461200000000     0.394550000000     0.820330000000     0.0678177  
C839     C      0.972320000000     0.364560000000     0.791590000000     0.0693455  
C840     C      0.464670000000     0.333540000000     0.852680000000     0.033646   
C841     C      0.958230000000     0.309620000000     0.846760000000    -0.0852347  
C842     C      0.958110000000     0.291620000000     0.864560000000     0.069266   
C843     C      0.469290000000     0.320380000000     0.894520000000     0.067707   
C844     C      0.470140000000     0.338760000000     0.877010000000    -0.084334   
C845     C      0.959840000000     0.338710000000     0.553850000000    -0.0843638  
C846     C      0.965900000000     0.333600000000     0.578070000000     0.0335851  
C847     C      0.472850000000     0.309780000000     0.583850000000    -0.0853176  
C848     C      0.472860000000     0.291770000000     0.566060000000     0.069276   
C849     C      0.960670000000     0.320340000000     0.536320000000     0.0677419  
C850     C      0.964860000000     0.352760000000     0.597280000000     0.0330001  
C851     C      0.969420000000     0.377260000000     0.591890000000    -0.0843745  
C852     C      0.968660000000     0.394760000000     0.610290000000     0.0668374  
C853     C      0.459440000000     0.364490000000     0.639410000000     0.0665595  
C854     C      0.459420000000     0.346680000000     0.621410000000    -0.0852887  
C855     C      0.471660000000     0.084170000000     0.621460000000    -0.0854132  
C856     C      0.465720000000     0.078230000000     0.597410000000     0.0328415  
C857     C      0.960540000000     0.053830000000     0.592090000000    -0.0845468  
C858     C      0.961280000000     0.036300000000     0.610450000000     0.0667208  
C859     C      0.471520000000     0.066350000000     0.639450000000     0.0665289  
C860     C      0.964810000000     0.097430000000     0.578200000000     0.0328827  
C861     C      0.458840000000     0.121490000000     0.584130000000    -0.0854275  
C862     C      0.958970000000     0.139470000000     0.566310000000     0.0664804  
C863     C      0.969240000000     0.110460000000     0.536280000000     0.0667359  
C864     C      0.969990000000     0.092100000000     0.553820000000    -0.0844619  
C865     C      0.465950000000     0.525400000000     0.152170000000     0.382671   
C866     C      0.525190000000     0.464980000000     0.278640000000     0.383802   
C867     C      0.525180000000     0.465330000000     0.152140000000     0.38102    
C868     C      0.463820000000     0.525350000000     0.278730000000     0.384719   
C869     C      0.905290000000     0.965890000000     0.278730000000     0.383781   
C870     C      0.964430000000     0.905530000000     0.152100000000     0.382609   
C871     C      0.966560000000     0.905450000000     0.278680000000     0.384494   
C872     C      0.905130000000     0.965530000000     0.152210000000     0.380967   
C873     C      0.964520000000     0.652170000000     0.025360000000     0.382603   
C874     C      0.905160000000     0.778680000000     0.964460000000     0.384161   
C875     C      0.905170000000     0.652180000000     0.965790000000     0.381168   
C876     C      0.966500000000     0.778780000000     0.025310000000     0.384601   
C877     C      0.525120000000     0.778770000000     0.466370000000     0.383713   
C878     C      0.465860000000     0.652100000000     0.405530000000     0.382645   
C879     C      0.463880000000     0.778720000000     0.405440000000     0.384663   
C880     C      0.525260000000     0.652230000000     0.465020000000     0.381106   
C881     C      0.778480000000     0.525330000000     0.966660000000     0.384741   
C882     C      0.651880000000     0.465080000000     0.025320000000     0.384079   
C883     C      0.778380000000     0.465320000000     0.025490000000     0.381881   
C884     C      0.651960000000     0.525440000000     0.963580000000     0.386081   
C885     C      0.651970000000     0.965800000000     0.405420000000     0.383883   
C886     C      0.778440000000     0.905540000000     0.464170000000     0.383118   
C887     C      0.651860000000     0.905580000000     0.467330000000     0.385082   
C888     C      0.778470000000     0.965600000000     0.405430000000     0.381046   
C889     C      0.809120000000     0.846920000000     0.957030000000    -0.0853172  
C890     C      0.833190000000     0.852710000000     0.463060000000     0.0331375  
C891     C      0.838530000000     0.876990000000     0.468750000000    -0.084497   
C892     C      0.820170000000     0.894540000000     0.468460000000     0.0668629  
C893     C      0.791130000000     0.864720000000     0.957670000000     0.0668589  
C894     C      0.852340000000     0.833450000000     0.963680000000     0.0333696  
C895     C      0.846300000000     0.809310000000     0.969170000000    -0.0848111  
C896     C      0.864100000000     0.791310000000     0.969040000000     0.067889   
C897     C      0.894310000000     0.820420000000     0.459620000000     0.0681912  
C898     C      0.876800000000     0.838810000000     0.458850000000    -0.0842777  
C899     C      0.846510000000     0.621270000000     0.460340000000    -0.0840899  
C900     C      0.852420000000     0.597350000000     0.966780000000     0.032388   
C901     C      0.876730000000     0.592180000000     0.972450000000    -0.0839233  
C902     C      0.894240000000     0.610580000000     0.971620000000     0.0667146  
C903     C      0.864280000000     0.639290000000     0.460350000000     0.0647262  
C904     C      0.833260000000     0.578110000000     0.967530000000     0.0336084  
C905     C      0.809120000000     0.584050000000     0.473100000000    -0.0861343  
C906     C      0.791130000000     0.566250000000     0.472590000000     0.0681145  
C907     C      0.820290000000     0.536210000000     0.962770000000     0.0672526  
C908     C      0.838680000000     0.553730000000     0.962430000000    -0.0847938  
C909     C      0.591880000000     0.876970000000     0.961560000000    -0.0843695  
C910     C      0.597000000000     0.852870000000     0.468110000000     0.0339281  
C911     C      0.620820000000     0.847230000000     0.475140000000    -0.0852897  
C912     C      0.638850000000     0.865000000000     0.474650000000     0.0696897  
C913     C      0.610270000000     0.894500000000     0.961930000000     0.0679855  
C914     C      0.577870000000     0.833610000000     0.467360000000     0.0334181  
C915     C      0.553320000000     0.839020000000     0.971570000000    -0.0840947  
C916     C      0.535840000000     0.820600000000     0.970770000000     0.0682406  
C917     C      0.566260000000     0.791390000000     0.462380000000     0.0676782  
C918     C      0.584050000000     0.809400000000     0.462380000000    -0.0846088  
C919     C      0.584040000000     0.621420000000     0.469820000000    -0.0840762  
C920     C      0.578000000000     0.597400000000     0.463880000000     0.0323544  
C921     C      0.553590000000     0.592140000000     0.958760000000    -0.0839831  
C922     C      0.536110000000     0.610560000000     0.959600000000     0.0668149  
C923     C      0.566260000000     0.639440000000     0.469890000000     0.0647493  
C924     C      0.597130000000     0.578170000000     0.963040000000     0.0339531  
C925     C      0.621060000000     0.583970000000     0.456550000000    -0.0861484  
C926     C      0.639070000000     0.566180000000     0.456930000000     0.0688785  
C927     C      0.610280000000     0.536430000000     0.968580000000     0.0677696  
C928     C      0.591900000000     0.553950000000     0.968990000000    -0.0847297  
C929     C      0.876970000000     0.970300000000     0.338970000000    -0.0843056  
C930     C      0.852530000000     0.965520000000     0.333530000000     0.0337333  
C931     C      0.846490000000     0.460400000000     0.309320000000    -0.0848078  
C932     C      0.864270000000     0.460900000000     0.291320000000     0.0679996  
C933     C      0.894470000000     0.969940000000     0.320560000000     0.068276   
C934     C      0.833330000000     0.966000000000     0.352730000000     0.0327849  
C935     C      0.838500000000     0.959830000000     0.376920000000    -0.0839586  
C936     C      0.820090000000     0.960210000000     0.394430000000     0.0668786  
C937     C      0.791360000000     0.471990000000     0.364690000000     0.0650296  
C938     C      0.809400000000     0.472500000000     0.346950000000    -0.0840776  
C939     C      0.583900000000     0.471130000000     0.309250000000    -0.0846997  
C940     C      0.578000000000     0.465550000000     0.333400000000     0.0336707  
C941     C      0.553650000000     0.960210000000     0.338770000000    -0.0841356  
C942     C      0.536120000000     0.960530000000     0.320390000000     0.0683836  
C943     C      0.566130000000     0.470520000000     0.291260000000     0.0682181  
C944     C      0.597210000000     0.965200000000     0.352610000000     0.0337078  
C945     C      0.621360000000     0.459630000000     0.346700000000    -0.084735   
C946     C      0.639350000000     0.460250000000     0.364480000000     0.068314   
C947     C      0.610220000000     0.970220000000     0.394480000000     0.0683949  
C948     C      0.591830000000     0.970530000000     0.376960000000    -0.0841512  
C949     C      0.553690000000     0.971150000000     0.092110000000    -0.0839486  
C950     C      0.577880000000     0.464970000000     0.097280000000     0.0327002  
C951     C      0.583650000000     0.458450000000     0.121210000000    -0.0839946  
C952     C      0.565920000000     0.458940000000     0.139240000000     0.0649833  
C953     C      0.536180000000     0.970770000000     0.110520000000     0.0668212  
C954     C      0.597080000000     0.465460000000     0.078090000000     0.0337615  
C955     C      0.591630000000     0.960700000000     0.053640000000    -0.0843822  
C956     C      0.610050000000     0.961060000000     0.036140000000     0.0683304  
C957     C      0.639290000000     0.470070000000     0.066350000000     0.068227   
C958     C      0.621290000000     0.470560000000     0.084120000000    -0.0850409  
C959     C      0.876690000000     0.460060000000     0.092110000000    -0.0842027  
C960     C      0.852400000000     0.965700000000     0.097390000000     0.0328906  
C961     C      0.846500000000     0.971740000000     0.121410000000    -0.0842219  
C962     C      0.864260000000     0.971340000000     0.139420000000     0.0650616  
C963     C      0.894190000000     0.460470000000     0.110530000000     0.0668133  
C964     C      0.833220000000     0.465140000000     0.078210000000     0.0329907  
C965     C      0.838500000000     0.470740000000     0.053910000000    -0.0842787  
C966     C      0.820080000000     0.470330000000     0.036420000000     0.0673072  
C967     C      0.791170000000     0.959530000000     0.066360000000     0.0655707  
C968     C      0.809190000000     0.959130000000     0.084120000000    -0.0841369  
C969     C      0.970410000000     0.553860000000     0.338670000000    -0.0843458  
C970     C      0.464370000000     0.578100000000     0.333570000000     0.0335889  
C971     C      0.457440000000     0.583900000000     0.309760000000    -0.0854086  
C972     C      0.457450000000     0.566110000000     0.291740000000     0.0692818  
C973     C      0.969590000000     0.536340000000     0.320300000000     0.0678047  
C974     C      0.465400000000     0.597300000000     0.352740000000     0.0329394  
C975     C      0.960820000000     0.591900000000     0.377230000000    -0.0843977  
C976     C      0.961590000000     0.610290000000     0.394730000000     0.0667773  
C977     C      0.470850000000     0.639430000000     0.364490000000     0.0664869  
C978     C      0.470870000000     0.621430000000     0.346680000000    -0.0852194  
C979     C      0.972210000000     0.846760000000     0.309590000000    -0.0852108  
C980     C      0.965800000000     0.852710000000     0.333510000000     0.0336839  
C981     C      0.460350000000     0.877050000000     0.338720000000    -0.0843843  
C982     C      0.461200000000     0.894550000000     0.320330000000     0.0678168  
C983     C      0.972310000000     0.864560000000     0.291580000000     0.0692924  
C984     C      0.464670000000     0.833540000000     0.352680000000     0.0336396  
C985     C      0.958230000000     0.809620000000     0.346760000000    -0.0852432  
C986     C      0.958110000000     0.791620000000     0.364560000000     0.0692724  
C987     C      0.469290000000     0.820380000000     0.394520000000     0.0676992  
C988     C      0.470140000000     0.838760000000     0.377010000000    -0.0843308  
C989     C      0.959840000000     0.838710000000     0.053850000000    -0.084353   
C990     C      0.965890000000     0.833600000000     0.078080000000     0.0335125  
C991     C      0.472850000000     0.809780000000     0.083850000000    -0.0853034  
C992     C      0.472860000000     0.791770000000     0.066060000000     0.0692262  
C993     C      0.960670000000     0.820340000000     0.036320000000     0.0676778  
C994     C      0.964860000000     0.852760000000     0.097280000000     0.0329874  
C995     C      0.969420000000     0.877260000000     0.091890000000    -0.0843828  
C996     C      0.968660000000     0.894760000000     0.110290000000     0.0668204  
C997     C      0.459440000000     0.864490000000     0.139410000000     0.0665356  
C998     C      0.459410000000     0.846680000000     0.121410000000    -0.085297   
C999     C      0.471660000000     0.584170000000     0.121460000000    -0.0853959  
C1000    C      0.465720000000     0.578230000000     0.097410000000     0.0328454  
C1001    C      0.960540000000     0.553830000000     0.092090000000    -0.0845097  
C1002    C      0.961270000000     0.536300000000     0.110450000000     0.0667355  
C1003    C      0.471520000000     0.566350000000     0.139450000000     0.0665299  
C1004    C      0.964810000000     0.597430000000     0.078200000000     0.0328944  
C1005    C      0.458840000000     0.621490000000     0.084130000000    -0.0854353  
C1006    C      0.958970000000     0.639470000000     0.066310000000     0.066466   
C1007    C      0.969240000000     0.610460000000     0.036280000000     0.0667152  
C1008    C      0.969990000000     0.592100000000     0.053820000000    -0.0845097  
C1009    C      0.465950000000     0.525400000000     0.652170000000     0.382673   
C1010    C      0.525190000000     0.464980000000     0.778640000000     0.3838     
C1011    C      0.525180000000     0.465330000000     0.652140000000     0.381021   
C1012    C      0.463820000000     0.525350000000     0.778730000000     0.384719   
C1013    C      0.905290000000     0.965890000000     0.778730000000     0.38378    
C1014    C      0.964430000000     0.905530000000     0.652100000000     0.382857   
C1015    C      0.966560000000     0.905450000000     0.778680000000     0.384496   
C1016    C      0.905130000000     0.965530000000     0.652210000000     0.380969   
C1017    C      0.964520000000     0.652170000000     0.525360000000     0.382625   
C1018    C      0.905160000000     0.778680000000     0.464460000000     0.384121   
C1019    C      0.905170000000     0.652180000000     0.465790000000     0.381135   
C1020    C      0.966500000000     0.778780000000     0.525310000000     0.384619   
C1021    C      0.525120000000     0.778770000000     0.966370000000     0.383737   
C1022    C      0.465860000000     0.652100000000     0.905530000000     0.382641   
C1023    C      0.463880000000     0.778720000000     0.905440000000     0.38467    
C1024    C      0.525260000000     0.652230000000     0.965020000000     0.381149   
C1025    C      0.778480000000     0.525330000000     0.466660000000     0.384709   
C1026    C      0.651880000000     0.465080000000     0.525320000000     0.384091   
C1027    C      0.778380000000     0.465320000000     0.525490000000     0.381886   
C1028    C      0.651960000000     0.525440000000     0.463580000000     0.386055   
C1029    C      0.651970000000     0.965800000000     0.905420000000     0.383984   
C1030    C      0.778440000000     0.905540000000     0.964170000000     0.383168   
C1031    C      0.651860000000     0.905580000000     0.967330000000     0.385114   
C1032    C      0.778470000000     0.965600000000     0.905420000000     0.381215   
C1033    C      0.809120000000     0.846920000000     0.457030000000    -0.0852721  
C1034    C      0.833180000000     0.852710000000     0.963060000000     0.0332345  
C1035    C      0.838530000000     0.876990000000     0.968750000000    -0.0845022  
C1036    C      0.820170000000     0.894540000000     0.968470000000     0.0669125  
C1037    C      0.791130000000     0.864720000000     0.457660000000     0.0668032  
C1038    C      0.852340000000     0.833450000000     0.463680000000     0.0333939  
C1039    C      0.846300000000     0.809310000000     0.469170000000    -0.0849481  
C1040    C      0.864100000000     0.791320000000     0.469040000000     0.0679477  
C1041    C      0.894310000000     0.820420000000     0.959620000000     0.0682241  
C1042    C      0.876800000000     0.838810000000     0.958850000000    -0.0842309  
C1043    C      0.846510000000     0.621270000000     0.960340000000    -0.0841771  
C1044    C      0.852420000000     0.597350000000     0.466780000000     0.0323137  
C1045    C      0.876730000000     0.592180000000     0.472450000000    -0.0839118  
C1046    C      0.894240000000     0.610580000000     0.471630000000     0.0666326  
C1047    C      0.864280000000     0.639290000000     0.960350000000     0.0648027  
C1048    C      0.833260000000     0.578110000000     0.467530000000     0.0335978  
C1049    C      0.809120000000     0.584050000000     0.973090000000    -0.0860799  
C1050    C      0.791130000000     0.566250000000     0.972590000000     0.0681186  
C1051    C      0.820290000000     0.536210000000     0.462770000000     0.0671898  
C1052    C      0.838680000000     0.553730000000     0.462430000000    -0.0848098  
C1053    C      0.591880000000     0.876970000000     0.461560000000    -0.0843821  
C1054    C      0.597000000000     0.852870000000     0.968110000000     0.0339577  
C1055    C      0.620820000000     0.847230000000     0.975140000000    -0.0852685  
C1056    C      0.638850000000     0.865000000000     0.974650000000     0.069729   
C1057    C      0.610270000000     0.894500000000     0.461930000000     0.0679378  
C1058    C      0.577870000000     0.833610000000     0.967350000000     0.033444   
C1059    C      0.553320000000     0.839020000000     0.471570000000    -0.0841198  
C1060    C      0.535840000000     0.820600000000     0.470770000000     0.0682027  
C1061    C      0.566260000000     0.791390000000     0.962380000000     0.0677091  
C1062    C      0.584050000000     0.809400000000     0.962380000000    -0.0846002  
C1063    C      0.584040000000     0.621420000000     0.969820000000    -0.0840374  
C1064    C      0.578000000000     0.597400000000     0.963880000000     0.0323736  
C1065    C      0.553590000000     0.592140000000     0.458760000000    -0.084009   
C1066    C      0.536110000000     0.610560000000     0.459600000000     0.0667837  
C1067    C      0.566260000000     0.639440000000     0.969900000000     0.0647643  
C1068    C      0.597130000000     0.578170000000     0.463050000000     0.0339234  
C1069    C      0.621060000000     0.583970000000     0.956550000000    -0.0861455  
C1070    C      0.639070000000     0.566180000000     0.956930000000     0.0689093  
C1071    C      0.610280000000     0.536430000000     0.468580000000     0.0677327  
C1072    C      0.591900000000     0.553950000000     0.468990000000    -0.0847553  
C1073    C      0.876970000000     0.970300000000     0.838970000000    -0.0843048  
C1074    C      0.852530000000     0.965520000000     0.833530000000     0.0337248  
C1075    C      0.846490000000     0.460400000000     0.809320000000    -0.0848087  
C1076    C      0.864270000000     0.460900000000     0.791320000000     0.0679954  
C1077    C      0.894470000000     0.969940000000     0.820560000000     0.0682739  
C1078    C      0.833330000000     0.966000000000     0.852730000000     0.0328027  
C1079    C      0.838500000000     0.959830000000     0.876920000000    -0.0839801  
C1080    C      0.820090000000     0.960210000000     0.894430000000     0.0669194  
C1081    C      0.791360000000     0.471990000000     0.864690000000     0.0650353  
C1082    C      0.809400000000     0.472500000000     0.846950000000    -0.0840863  
C1083    C      0.583900000000     0.471130000000     0.809250000000    -0.0847015  
C1084    C      0.578000000000     0.465550000000     0.833400000000     0.0336732  
C1085    C      0.553650000000     0.960210000000     0.838770000000    -0.0841384  
C1086    C      0.536120000000     0.960530000000     0.820390000000     0.0683823  
C1087    C      0.566130000000     0.470520000000     0.791260000000     0.0682061  
C1088    C      0.597210000000     0.965200000000     0.852610000000     0.0336984  
C1089    C      0.621360000000     0.459630000000     0.846710000000    -0.0846733  
C1090    C      0.639350000000     0.460250000000     0.864480000000     0.0683086  
C1091    C      0.610220000000     0.970220000000     0.894480000000     0.0684511  
C1092    C      0.591830000000     0.970530000000     0.876960000000    -0.0841735  
C1093    C      0.553690000000     0.971150000000     0.592110000000    -0.0839427  
C1094    C      0.577880000000     0.464970000000     0.597280000000     0.0327096  
C1095    C      0.583650000000     0.458450000000     0.621210000000    -0.0839878  
C1096    C      0.565920000000     0.458940000000     0.639240000000     0.0649888  
C1097    C      0.536180000000     0.970770000000     0.610520000000     0.0668364  
C1098    C      0.597080000000     0.465460000000     0.578090000000     0.0337986  
C1099    C      0.591630000000     0.960700000000     0.553640000000    -0.0843464  
C1100    C      0.610050000000     0.961060000000     0.536140000000     0.0683776  
C1101    C      0.639290000000     0.470060000000     0.566350000000     0.0683028  
C1102    C      0.621290000000     0.470560000000     0.584120000000    -0.0850737  
C1103    C      0.876690000000     0.460060000000     0.592110000000    -0.084187   
C1104    C      0.852400000000     0.965700000000     0.597390000000     0.0329077  
C1105    C      0.846500000000     0.971740000000     0.621410000000    -0.0842188  
C1106    C      0.864260000000     0.971340000000     0.639420000000     0.0650696  
C1107    C      0.894190000000     0.460470000000     0.610530000000     0.0668239  
C1108    C      0.833220000000     0.465140000000     0.578210000000     0.0330508  
C1109    C      0.838500000000     0.470740000000     0.553910000000    -0.0842658  
C1110    C      0.820080000000     0.470330000000     0.536420000000     0.067366   
C1111    C      0.791170000000     0.959530000000     0.566360000000     0.0655994  
C1112    C      0.809190000000     0.959130000000     0.584120000000    -0.0841248  
C1113    C      0.970410000000     0.553860000000     0.838670000000    -0.0843451  
C1114    C      0.464370000000     0.578100000000     0.833570000000     0.0335735  
C1115    C      0.457450000000     0.583900000000     0.809760000000    -0.0854033  
C1116    C      0.457460000000     0.566110000000     0.791740000000     0.0692996  
C1117    C      0.969590000000     0.536340000000     0.820300000000     0.0678022  
C1118    C      0.465400000000     0.597300000000     0.852740000000     0.0329693  
C1119    C      0.960820000000     0.591900000000     0.877220000000    -0.0843514  
C1120    C      0.961590000000     0.610290000000     0.894730000000     0.0667244  
C1121    C      0.470850000000     0.639430000000     0.864490000000     0.0664994  
C1122    C      0.470870000000     0.621430000000     0.846680000000    -0.08526    
C1123    C      0.972210000000     0.846760000000     0.809590000000    -0.0852936  
C1124    C      0.965800000000     0.852710000000     0.833510000000     0.0337133  
C1125    C      0.460350000000     0.877050000000     0.838720000000    -0.0843828  
C1126    C      0.461200000000     0.894550000000     0.820330000000     0.0678137  
C1127    C      0.972310000000     0.864560000000     0.791590000000     0.0693735  
C1128    C      0.464670000000     0.833540000000     0.852680000000     0.0336543  
C1129    C      0.958230000000     0.809620000000     0.846760000000    -0.0852379  
C1130    C      0.958110000000     0.791620000000     0.864560000000     0.0692657  
C1131    C      0.469290000000     0.820370000000     0.894520000000     0.0677875  
C1132    C      0.470140000000     0.838760000000     0.877010000000    -0.0843619  
C1133    C      0.959840000000     0.838710000000     0.553850000000    -0.0843667  
C1134    C      0.965890000000     0.833600000000     0.578070000000     0.0335764  
C1135    C      0.472850000000     0.809780000000     0.583850000000    -0.0853177  
C1136    C      0.472860000000     0.791770000000     0.566060000000     0.0692662  
C1137    C      0.960670000000     0.820340000000     0.536320000000     0.0677399  
C1138    C      0.964860000000     0.852760000000     0.597280000000     0.033004   
C1139    C      0.969420000000     0.877260000000     0.591890000000    -0.0843791  
C1140    C      0.968660000000     0.894760000000     0.610290000000     0.0668432  
C1141    C      0.459440000000     0.864490000000     0.639410000000     0.0665482  
C1142    C      0.459420000000     0.846680000000     0.621410000000    -0.0852748  
C1143    C      0.471660000000     0.584170000000     0.621460000000    -0.0853932  
C1144    C      0.465720000000     0.578230000000     0.597410000000     0.0328618  
C1145    C      0.960540000000     0.553830000000     0.592090000000    -0.0844982  
C1146    C      0.961270000000     0.536300000000     0.610450000000     0.0667423  
C1147    C      0.471520000000     0.566350000000     0.639450000000     0.0665367  
C1148    C      0.964810000000     0.597430000000     0.578200000000     0.0329132  
C1149    C      0.458840000000     0.621490000000     0.584130000000    -0.0854253  
C1150    C      0.958970000000     0.639470000000     0.566310000000     0.0664949  
C1151    C      0.969240000000     0.610460000000     0.536280000000     0.0667617  
C1152    C      0.969990000000     0.592100000000     0.553820000000    -0.0844797  
H1       H      0.002330000000     0.002870000000     0.249960000000     0.209307   
H2       H      0.002880000000     0.427640000000     0.179150000000     0.203876   
H3       H      0.428100000000     0.427970000000     0.249980000000     0.209944   
H4       H      0.427450000000     0.003270000000     0.179240000000     0.203521   
H5       H      0.044120000000     0.421920000000     0.212580000000     0.125693   
H6       H      0.010100000000     0.382890000000     0.211790000000     0.185258   
H7       H      0.422460000000     0.390490000000     0.202550000000     0.148127   
H8       H      0.381920000000     0.425010000000     0.230000000000     0.199714   
H9       H      0.386290000000     0.008970000000     0.212780000000     0.125193   
H10      H      0.420300000000     0.047980000000     0.211770000000     0.185553   
H11      H      0.007960000000     0.040400000000     0.202740000000     0.147522   
H12      H      0.048430000000     0.005930000000     0.229800000000     0.199163   
H13      H      0.384120000000     0.423760000000     0.199740000000     0.203548   
H14      H      0.444100000000     0.066490000000     0.215660000000     0.203457   
H15      H      0.046280000000     0.007050000000     0.199530000000     0.202818   
H16      H      0.986290000000     0.364370000000     0.215570000000     0.203363   
H17      H      0.428040000000     0.250030000000     0.002810000000     0.20986    
H18      H      0.427440000000     0.179150000000     0.427690000000     0.204104   
H19      H      0.002290000000     0.250040000000     0.427980000000     0.209726   
H20      H      0.002980000000     0.179230000000     0.003170000000     0.202977   
H21      H      0.386300000000     0.212650000000     0.421890000000     0.125568   
H22      H      0.420260000000     0.211860000000     0.382900000000     0.185572   
H23      H      0.007860000000     0.202510000000     0.390450000000     0.147712   
H24      H      0.048530000000     0.230450000000     0.425190000000     0.199572   
H25      H      0.044050000000     0.212840000000     0.008950000000     0.124965   
H26      H      0.010100000000     0.211840000000     0.047920000000     0.18512    
H27      H      0.422480000000     0.202700000000     0.040390000000     0.148114   
H28      H      0.381870000000     0.230260000000     0.005700000000     0.198561   
H29      H      0.046160000000     0.200210000000     0.423500000000     0.203246   
H30      H      0.986300000000     0.215710000000     0.066430000000     0.203249   
H31      H      0.384210000000     0.200010000000     0.007270000000     0.202627   
H32      H      0.444080000000     0.215610000000     0.364380000000     0.203122   
H33      H      0.180590000000     0.002940000000     0.002470000000     0.211312   
H34      H      0.251390000000     0.427610000000     0.003150000000     0.203253   
H35      H      0.180620000000     0.427970000000     0.428330000000     0.21011    
H36      H      0.251480000000     0.003250000000     0.427750000000     0.202667   
H37      H      0.217750000000     0.422010000000     0.044410000000     0.125797   
H38      H      0.219250000000     0.382970000000     0.010360000000     0.185346   
H39      H      0.227310000000     0.390470000000     0.422560000000     0.148169   
H40      H      0.200850000000     0.424840000000     0.382250000000     0.199708   
H41      H      0.217800000000     0.008950000000     0.386500000000     0.125301   
H42      H      0.220990000000     0.048220000000     0.420900000000     0.185133   
H43      H      0.215620000000     0.059350000000     0.992130000000     0.141256   
H44      H      0.201430000000     0.003880000000     0.051390000000     0.202032   
H45      H      0.231130000000     0.423820000000     0.384310000000     0.203553   
H46      H      0.213330000000     0.066390000000     0.444030000000     0.195672   
H47      H      0.230240000000     0.009390000000     0.043520000000     0.210971   
H48      H      0.215170000000     0.364420000000     0.986620000000     0.203769   
H49      H      0.356650000000     0.382510000000     0.473930000000     0.0493703  
H50      H      0.325150000000     0.412990000000     0.473200000000     0.0275439  
H51      H      0.272810000000     0.359200000000     0.953010000000     0.0238142  
H52      H      0.303980000000     0.328740000000     0.951650000000     0.0500031  
H53      H      0.327940000000     0.304140000000     0.973870000000     0.0496568  
H54      H      0.358380000000     0.272970000000     0.973360000000     0.0249455  
H55      H      0.412940000000     0.325410000000     0.455640000000     0.0287254  
H56      H      0.382510000000     0.356990000000     0.454090000000     0.0497962  
H57      H      0.382300000000     0.074150000000     0.977930000000     0.0495587  
H58      H      0.412740000000     0.105750000000     0.976300000000     0.0287081  
H59      H      0.358650000000     0.157470000000     0.455290000000     0.0280789  
H60      H      0.328270000000     0.126240000000     0.455000000000     0.0492715  
H61      H      0.303950000000     0.102360000000     0.478000000000     0.0493174  
H62      H      0.272760000000     0.071890000000     0.476870000000     0.0221572  
H63      H      0.325330000000     0.017660000000     0.958480000000     0.0275637  
H64      H      0.356890000000     0.048120000000     0.957670000000     0.0495172  
H65      H      0.125710000000     0.329180000000     0.481190000000     0.0503472  
H66      H      0.156980000000     0.359580000000     0.480100000000     0.0249725  
H67      H      0.105480000000     0.412810000000     0.956480000000     0.0280293  
H68      H      0.073940000000     0.382330000000     0.955630000000     0.0497322  
H69      H      0.047520000000     0.357290000000     0.975890000000     0.049927   
H70      H      0.017140000000     0.325640000000     0.974290000000     0.0287509  
H71      H      0.072090000000     0.272990000000     0.458480000000     0.0254049  
H72      H      0.102520000000     0.304200000000     0.458190000000     0.050214   
H73      H      0.047940000000     0.074010000000     0.953700000000     0.0495364  
H74      H      0.017530000000     0.105640000000     0.955350000000     0.0285861  
H75      H      0.071980000000     0.157690000000     0.474550000000     0.0282292  
H76      H      0.102400000000     0.126450000000     0.474680000000     0.0495553  
H77      H      0.126040000000     0.102160000000     0.451020000000     0.049272   
H78      H      0.157280000000     0.071710000000     0.451900000000     0.0214009  
H79      H      0.105400000000     0.018010000000     0.973550000000     0.0278816  
H80      H      0.073840000000     0.048480000000     0.974470000000     0.0495926  
H81      H      0.328130000000     0.955760000000     0.304090000000     0.0504075  
H82      H      0.358540000000     0.956880000000     0.272920000000     0.0252502  
H83      H      0.413080000000     0.473880000000     0.325610000000     0.0287113  
H84      H      0.382660000000     0.474740000000     0.357240000000     0.0497514  
H85      H      0.356540000000     0.454290000000     0.382390000000     0.049529   
H86      H      0.324920000000     0.455150000000     0.412830000000     0.0286506  
H87      H      0.273170000000     0.977100000000     0.359160000000     0.0283791  
H88      H      0.304420000000     0.978240000000     0.328830000000     0.0507319  
H89      H      0.048040000000     0.455350000000     0.356960000000     0.0496541  
H90      H      0.017590000000     0.456160000000     0.325390000000     0.0285965  
H91      H      0.071750000000     0.974900000000     0.272910000000     0.0250408  
H92      H      0.102140000000     0.976230000000     0.304060000000     0.0508702  
H93      H      0.126550000000     0.954520000000     0.328460000000     0.0508401  
H94      H      0.157710000000     0.955870000000     0.358860000000     0.0250194  
H95      H      0.105220000000     0.474590000000     0.413020000000     0.028717   
H96      H      0.073640000000     0.475380000000     0.382570000000     0.0496997  
H97      H      0.101770000000     0.952700000000     0.126180000000     0.0506944  
H98      H      0.071440000000     0.953810000000     0.157430000000     0.02843    
H99      H      0.017780000000     0.475830000000     0.105700000000     0.0284577  
H100     H      0.048220000000     0.476720000000     0.074080000000     0.0493225  
H101     H      0.073360000000     0.456270000000     0.047950000000     0.0497528  
H102     H      0.104990000000     0.457130000000     0.017520000000     0.0286318  
H103     H      0.157690000000     0.974070000000     0.072070000000     0.0244507  
H104     H      0.126520000000     0.975180000000     0.102480000000     0.0504115  
H105     H      0.328260000000     0.477020000000     0.126460000000     0.0504188  
H106     H      0.358650000000     0.476090000000     0.157690000000     0.0284257  
H107     H      0.412680000000     0.955820000000     0.105610000000     0.0285844  
H108     H      0.382230000000     0.954900000000     0.073980000000     0.049475   
H109     H      0.356630000000     0.975870000000     0.048360000000     0.0496499  
H110     H      0.325000000000     0.974950000000     0.017920000000     0.0287572  
H111     H      0.272910000000     0.454820000000     0.071990000000     0.028825   
H112     H      0.304140000000     0.453880000000     0.102370000000     0.0503818  
H113     H      0.951810000000     0.102080000000     0.304880000000     0.0492767  
H114     H      0.952090000000     0.071640000000     0.273620000000     0.0247036  
H115     H      0.474640000000     0.017920000000     0.325080000000     0.0279488  
H116     H      0.476240000000     0.048370000000     0.356610000000     0.0496762  
H117     H      0.456150000000     0.073690000000     0.382940000000     0.0495134  
H118     H      0.457690000000     0.105260000000     0.413360000000     0.0276901  
H119     H      0.975040000000     0.157790000000     0.358750000000     0.0236889  
H120     H      0.975360000000     0.126580000000     0.328260000000     0.0494506  
H121     H      0.954960000000     0.382630000000     0.356770000000     0.0498595  
H122     H      0.956610000000     0.413070000000     0.325200000000     0.0281759  
H123     H      0.477270000000     0.358920000000     0.273390000000     0.0249432  
H124     H      0.477340000000     0.328440000000     0.304640000000     0.0498674  
H125     H      0.453070000000     0.304670000000     0.328450000000     0.04984    
H126     H      0.453130000000     0.273420000000     0.358940000000     0.0249418  
H127     H      0.973890000000     0.325260000000     0.413030000000     0.028166   
H128     H      0.975560000000     0.356810000000     0.382580000000     0.0498837  
H129     H      0.978500000000     0.304900000000     0.102030000000     0.0492944  
H130     H      0.978250000000     0.273650000000     0.071580000000     0.0247474  
H131     H      0.455610000000     0.325130000000     0.017910000000     0.0278638  
H132     H      0.453990000000     0.356650000000     0.048380000000     0.049605   
H133     H      0.474070000000     0.382990000000     0.073690000000     0.0496208  
H134     H      0.472530000000     0.413390000000     0.105260000000     0.0277776  
H135     H      0.955260000000     0.358740000000     0.157770000000     0.02367    
H136     H      0.954950000000     0.328250000000     0.126550000000     0.0494177  
H137     H      0.455450000000     0.048200000000     0.073980000000     0.0493282  
H138     H      0.456930000000     0.017750000000     0.105480000000     0.0274618  
H139     H      0.976100000000     0.071990000000     0.157750000000     0.0235037  
H140     H      0.976630000000     0.102480000000     0.126560000000     0.048887   
H141     H      0.953860000000     0.126590000000     0.102430000000     0.0488526  
H142     H      0.954370000000     0.157770000000     0.071930000000     0.0234735  
H143     H      0.473580000000     0.105480000000     0.017730000000     0.0274134  
H144     H      0.475090000000     0.073980000000     0.048190000000     0.0492542  
H145     H      0.002330000000     0.002870000000     0.749960000000     0.209305   
H146     H      0.002880000000     0.427640000000     0.679150000000     0.203877   
H147     H      0.428100000000     0.427970000000     0.749970000000     0.210135   
H148     H      0.427450000000     0.003270000000     0.679240000000     0.203522   
H149     H      0.044120000000     0.421920000000     0.712580000000     0.125692   
H150     H      0.010100000000     0.382890000000     0.711790000000     0.185257   
H151     H      0.422460000000     0.390490000000     0.702560000000     0.148299   
H152     H      0.381920000000     0.425010000000     0.730000000000     0.199626   
H153     H      0.386290000000     0.008970000000     0.712780000000     0.125193   
H154     H      0.420300000000     0.047980000000     0.711770000000     0.185553   
H155     H      0.007960000000     0.040400000000     0.702740000000     0.147518   
H156     H      0.048430000000     0.005930000000     0.729800000000     0.19901    
H157     H      0.384120000000     0.423760000000     0.699730000000     0.203277   
H158     H      0.444100000000     0.066490000000     0.715660000000     0.203455   
H159     H      0.046280000000     0.007050000000     0.699530000000     0.202653   
H160     H      0.986290000000     0.364370000000     0.715570000000     0.203362   
H161     H      0.428040000000     0.250030000000     0.502810000000     0.210304   
H162     H      0.427440000000     0.179150000000     0.927690000000     0.204101   
H163     H      0.002300000000     0.250040000000     0.927980000000     0.209538   
H164     H      0.002980000000     0.179230000000     0.503170000000     0.20344    
H165     H      0.386300000000     0.212650000000     0.921890000000     0.125562   
H166     H      0.420260000000     0.211860000000     0.882900000000     0.185568   
H167     H      0.007860000000     0.202510000000     0.890450000000     0.147704   
H168     H      0.048530000000     0.230450000000     0.925190000000     0.199424   
H169     H      0.044050000000     0.212840000000     0.508950000000     0.125413   
H170     H      0.010100000000     0.211840000000     0.547920000000     0.185191   
H171     H      0.422480000000     0.202700000000     0.540390000000     0.148178   
H172     H      0.381870000000     0.230260000000     0.505700000000     0.199161   
H173     H      0.046160000000     0.200210000000     0.923500000000     0.203076   
H174     H      0.986300000000     0.215710000000     0.566430000000     0.203268   
H175     H      0.384210000000     0.200010000000     0.507270000000     0.203235   
H176     H      0.444080000000     0.215610000000     0.864380000000     0.203116   
H177     H      0.180590000000     0.002940000000     0.502470000000     0.211816   
H178     H      0.251390000000     0.427610000000     0.503150000000     0.203737   
H179     H      0.180620000000     0.427970000000     0.928330000000     0.210107   
H180     H      0.251480000000     0.003240000000     0.927750000000     0.202864   
H181     H      0.217750000000     0.422010000000     0.544410000000     0.125845   
H182     H      0.219250000000     0.382970000000     0.510360000000     0.18581    
H183     H      0.227310000000     0.390470000000     0.922560000000     0.148166   
H184     H      0.200850000000     0.424840000000     0.882250000000     0.199703   
H185     H      0.217800000000     0.008950000000     0.886500000000     0.125295   
H186     H      0.220990000000     0.048220000000     0.920900000000     0.185133   
H187     H      0.215620000000     0.059350000000     0.492130000000     0.141226   
H188     H      0.201430000000     0.003870000000     0.551390000000     0.20198    
H189     H      0.231130000000     0.423820000000     0.884310000000     0.203548   
H190     H      0.213330000000     0.066390000000     0.944030000000     0.195688   
H191     H      0.230240000000     0.009390000000     0.543520000000     0.21103    
H192     H      0.215170000000     0.364420000000     0.486620000000     0.203823   
H193     H      0.356650000000     0.382510000000     0.973930000000     0.0494372  
H194     H      0.325150000000     0.412990000000     0.973200000000     0.0276116  
H195     H      0.272810000000     0.359200000000     0.453010000000     0.0237887  
H196     H      0.303980000000     0.328740000000     0.451650000000     0.049993   
H197     H      0.327950000000     0.304150000000     0.473870000000     0.0496763  
H198     H      0.358380000000     0.272970000000     0.473360000000     0.0248688  
H199     H      0.412940000000     0.325410000000     0.955640000000     0.0287644  
H200     H      0.382510000000     0.356990000000     0.954090000000     0.0498193  
H201     H      0.382300000000     0.074150000000     0.477930000000     0.049488   
H202     H      0.412740000000     0.105750000000     0.476300000000     0.0286422  
H203     H      0.358650000000     0.157470000000     0.955290000000     0.028099   
H204     H      0.328270000000     0.126230000000     0.955000000000     0.0493104  
H205     H      0.303950000000     0.102360000000     0.978000000000     0.0493503  
H206     H      0.272760000000     0.071890000000     0.976870000000     0.0222008  
H207     H      0.325330000000     0.017660000000     0.458480000000     0.0275345  
H208     H      0.356890000000     0.048120000000     0.457670000000     0.0494862  
H209     H      0.125710000000     0.329180000000     0.981190000000     0.050403   
H210     H      0.156980000000     0.359580000000     0.980100000000     0.0250181  
H211     H      0.105480000000     0.412810000000     0.456490000000     0.0279962  
H212     H      0.073940000000     0.382330000000     0.455630000000     0.0496581  
H213     H      0.047520000000     0.357290000000     0.475890000000     0.0498637  
H214     H      0.017140000000     0.325640000000     0.474280000000     0.0286878  
H215     H      0.072100000000     0.272990000000     0.958480000000     0.0254094  
H216     H      0.102520000000     0.304200000000     0.958190000000     0.0502389  
H217     H      0.047940000000     0.074010000000     0.453700000000     0.0495095  
H218     H      0.017530000000     0.105640000000     0.455350000000     0.0285515  
H219     H      0.071980000000     0.157690000000     0.974560000000     0.02828    
H220     H      0.102400000000     0.126450000000     0.974680000000     0.0495993  
H221     H      0.126040000000     0.102160000000     0.951020000000     0.0492892  
H222     H      0.157280000000     0.071710000000     0.951900000000     0.0214118  
H223     H      0.105400000000     0.018010000000     0.473550000000     0.0278078  
H224     H      0.073840000000     0.048480000000     0.474470000000     0.0495288  
H225     H      0.328130000000     0.955760000000     0.804090000000     0.0504032  
H226     H      0.358540000000     0.956880000000     0.772920000000     0.0252483  
H227     H      0.413080000000     0.473880000000     0.825610000000     0.0287128  
H228     H      0.382660000000     0.474740000000     0.857240000000     0.0497566  
H229     H      0.356540000000     0.454290000000     0.882390000000     0.0495413  
H230     H      0.324920000000     0.455150000000     0.912830000000     0.0286555  
H231     H      0.273170000000     0.977100000000     0.859160000000     0.0283651  
H232     H      0.304420000000     0.978240000000     0.828830000000     0.0507286  
H233     H      0.048040000000     0.455350000000     0.856960000000     0.0496606  
H234     H      0.017590000000     0.456160000000     0.825390000000     0.0285975  
H235     H      0.071750000000     0.974900000000     0.772910000000     0.0250437  
H236     H      0.102140000000     0.976230000000     0.804060000000     0.0508675  
H237     H      0.126550000000     0.954520000000     0.828460000000     0.050779   
H238     H      0.157710000000     0.955870000000     0.858860000000     0.0250403  
H239     H      0.105220000000     0.474590000000     0.913020000000     0.028734   
H240     H      0.073640000000     0.475380000000     0.882570000000     0.0497044  
H241     H      0.101770000000     0.952700000000     0.626180000000     0.0507039  
H242     H      0.071440000000     0.953810000000     0.657430000000     0.028434   
H243     H      0.017780000000     0.475830000000     0.605700000000     0.0284757  
H244     H      0.048220000000     0.476720000000     0.574080000000     0.049367   
H245     H      0.073360000000     0.456270000000     0.547950000000     0.0498177  
H246     H      0.104990000000     0.457130000000     0.517520000000     0.0287452  
H247     H      0.157690000000     0.974070000000     0.572070000000     0.0244594  
H248     H      0.126520000000     0.975180000000     0.602480000000     0.0504227  
H249     H      0.328260000000     0.477020000000     0.626460000000     0.0504278  
H250     H      0.358650000000     0.476090000000     0.657690000000     0.0284275  
H251     H      0.412680000000     0.955820000000     0.605610000000     0.0286026  
H252     H      0.382230000000     0.954900000000     0.573980000000     0.0495198  
H253     H      0.356630000000     0.975870000000     0.548360000000     0.0497134  
H254     H      0.325000000000     0.974950000000     0.517920000000     0.0288733  
H255     H      0.272910000000     0.454820000000     0.571990000000     0.0288366  
H256     H      0.304140000000     0.453880000000     0.602370000000     0.0503923  
H257     H      0.951810000000     0.102080000000     0.804880000000     0.0492701  
H258     H      0.952090000000     0.071640000000     0.773620000000     0.0247009  
H259     H      0.474640000000     0.017920000000     0.825080000000     0.0279505  
H260     H      0.476240000000     0.048370000000     0.856610000000     0.0496811  
H261     H      0.456150000000     0.073690000000     0.882940000000     0.0495001  
H262     H      0.457690000000     0.105260000000     0.913360000000     0.0277165  
H263     H      0.975040000000     0.157790000000     0.858750000000     0.0236835  
H264     H      0.975360000000     0.126580000000     0.828260000000     0.0494597  
H265     H      0.954960000000     0.382630000000     0.856770000000     0.0498693  
H266     H      0.956610000000     0.413070000000     0.825200000000     0.0281755  
H267     H      0.477270000000     0.358920000000     0.773390000000     0.0249414  
H268     H      0.477340000000     0.328440000000     0.804640000000     0.0498623  
H269     H      0.453070000000     0.304670000000     0.828450000000     0.049841   
H270     H      0.453130000000     0.273420000000     0.858940000000     0.0249318  
H271     H      0.973890000000     0.325260000000     0.913030000000     0.0281827  
H272     H      0.975560000000     0.356810000000     0.882580000000     0.0498905  
H273     H      0.978500000000     0.304900000000     0.602030000000     0.0493137  
H274     H      0.978250000000     0.273650000000     0.571580000000     0.0247612  
H275     H      0.455610000000     0.325130000000     0.517910000000     0.0279662  
H276     H      0.453990000000     0.356650000000     0.548380000000     0.0496782  
H277     H      0.474070000000     0.382990000000     0.573690000000     0.0496628  
H278     H      0.472530000000     0.413390000000     0.605260000000     0.0277974  
H279     H      0.955270000000     0.358740000000     0.657770000000     0.023672   
H280     H      0.954950000000     0.328250000000     0.626550000000     0.0494214  
H281     H      0.455450000000     0.048200000000     0.573980000000     0.0493736  
H282     H      0.456930000000     0.017750000000     0.605480000000     0.0274804  
H283     H      0.976100000000     0.071990000000     0.657750000000     0.0235092  
H284     H      0.976630000000     0.102480000000     0.626560000000     0.0488899  
H285     H      0.953860000000     0.126590000000     0.602430000000     0.0488616  
H286     H      0.954370000000     0.157770000000     0.571930000000     0.0234816  
H287     H      0.473590000000     0.105480000000     0.517740000000     0.0275108  
H288     H      0.475090000000     0.073980000000     0.548190000000     0.0493169  
H289     H      0.002330000000     0.502870000000     0.249960000000     0.209835   
H290     H      0.002880000000     0.927640000000     0.179150000000     0.203878   
H291     H      0.428100000000     0.927970000000     0.249980000000     0.209941   
H292     H      0.427450000000     0.503270000000     0.179240000000     0.204051   
H293     H      0.044120000000     0.921920000000     0.212580000000     0.125802   
H294     H      0.010100000000     0.882890000000     0.211790000000     0.18525    
H295     H      0.422460000000     0.890490000000     0.202550000000     0.148123   
H296     H      0.381920000000     0.925010000000     0.230000000000     0.199714   
H297     H      0.386290000000     0.508970000000     0.212780000000     0.125693   
H298     H      0.420300000000     0.547980000000     0.211770000000     0.18565    
H299     H      0.007950000000     0.540400000000     0.202740000000     0.147696   
H300     H      0.048430000000     0.505930000000     0.229800000000     0.199851   
H301     H      0.384120000000     0.923760000000     0.199740000000     0.203547   
H302     H      0.444090000000     0.566490000000     0.215660000000     0.203588   
H303     H      0.046280000000     0.507050000000     0.199530000000     0.203515   
H304     H      0.986290000000     0.864370000000     0.215570000000     0.203355   
H305     H      0.428040000000     0.750030000000     0.002810000000     0.209858   
H306     H      0.427440000000     0.679150000000     0.427690000000     0.204105   
H307     H      0.002290000000     0.750040000000     0.427980000000     0.20973    
H308     H      0.002980000000     0.679230000000     0.003170000000     0.202979   
H309     H      0.386300000000     0.712650000000     0.421890000000     0.125568   
H310     H      0.420260000000     0.711860000000     0.382900000000     0.185571   
H311     H      0.007860000000     0.702510000000     0.390450000000     0.147713   
H312     H      0.048530000000     0.730450000000     0.425190000000     0.199568   
H313     H      0.044050000000     0.712850000000     0.008950000000     0.124998   
H314     H      0.010100000000     0.711840000000     0.047920000000     0.185118   
H315     H      0.422480000000     0.702700000000     0.040390000000     0.148117   
H316     H      0.381870000000     0.730260000000     0.005700000000     0.198756   
H317     H      0.046160000000     0.700210000000     0.423500000000     0.203246   
H318     H      0.986300000000     0.715710000000     0.066430000000     0.203247   
H319     H      0.384210000000     0.700010000000     0.007270000000     0.202428   
H320     H      0.444080000000     0.715610000000     0.364380000000     0.203119   
H321     H      0.180590000000     0.502940000000     0.002470000000     0.211852   
H322     H      0.251390000000     0.927610000000     0.003150000000     0.203255   
H323     H      0.180620000000     0.927970000000     0.428330000000     0.2101     
H324     H      0.251480000000     0.503250000000     0.427750000000     0.203186   
H325     H      0.217750000000     0.922010000000     0.044410000000     0.125792   
H326     H      0.219250000000     0.882970000000     0.010360000000     0.185313   
H327     H      0.227310000000     0.890470000000     0.422560000000     0.148168   
H328     H      0.200850000000     0.924840000000     0.382250000000     0.199686   
H329     H      0.217800000000     0.508950000000     0.386500000000     0.125807   
H330     H      0.220990000000     0.548220000000     0.420900000000     0.185212   
H331     H      0.215620000000     0.559350000000     0.992130000000     0.141245   
H332     H      0.201430000000     0.503880000000     0.051390000000     0.202565   
H333     H      0.231130000000     0.923820000000     0.384310000000     0.20353    
H334     H      0.213330000000     0.566390000000     0.444030000000     0.195695   
H335     H      0.230240000000     0.509390000000     0.043520000000     0.211593   
H336     H      0.215170000000     0.864420000000     0.986620000000     0.20349    
H337     H      0.356650000000     0.882510000000     0.473930000000     0.0493784  
H338     H      0.325150000000     0.912990000000     0.473200000000     0.0275634  
H339     H      0.272810000000     0.859200000000     0.953010000000     0.0238115  
H340     H      0.303980000000     0.828740000000     0.951650000000     0.0499983  
H341     H      0.327940000000     0.804140000000     0.973870000000     0.0496488  
H342     H      0.358380000000     0.772970000000     0.973360000000     0.0249459  
H343     H      0.412940000000     0.825410000000     0.455640000000     0.0287249  
H344     H      0.382510000000     0.856990000000     0.454090000000     0.0498026  
H345     H      0.382300000000     0.574150000000     0.977930000000     0.0496098  
H346     H      0.412740000000     0.605750000000     0.976300000000     0.0287288  
H347     H      0.358650000000     0.657470000000     0.455290000000     0.0280769  
H348     H      0.328270000000     0.626230000000     0.455000000000     0.049296   
H349     H      0.303950000000     0.602360000000     0.478000000000     0.0493258  
H350     H      0.272760000000     0.571890000000     0.476870000000     0.0221663  
H351     H      0.325330000000     0.517660000000     0.958480000000     0.0276911  
H352     H      0.356890000000     0.548120000000     0.957670000000     0.0495883  
H353     H      0.125710000000     0.829180000000     0.481190000000     0.0503423  
H354     H      0.156980000000     0.859580000000     0.480100000000     0.0249712  
H355     H      0.105480000000     0.912810000000     0.956480000000     0.0280472  
H356     H      0.073940000000     0.882330000000     0.955630000000     0.0497415  
H357     H      0.047520000000     0.857290000000     0.975890000000     0.0499311  
H358     H      0.017140000000     0.825640000000     0.974290000000     0.0287527  
H359     H      0.072090000000     0.772990000000     0.458480000000     0.0254013  
H360     H      0.102520000000     0.804200000000     0.458190000000     0.0502093  
H361     H      0.047940000000     0.574010000000     0.953700000000     0.0495941  
H362     H      0.017530000000     0.605640000000     0.955350000000     0.0285831  
H363     H      0.071980000000     0.657690000000     0.474550000000     0.0282282  
H364     H      0.102400000000     0.626450000000     0.474680000000     0.0495646  
H365     H      0.126040000000     0.602160000000     0.451020000000     0.049283   
H366     H      0.157280000000     0.571710000000     0.451900000000     0.021413   
H367     H      0.105400000000     0.518010000000     0.973550000000     0.0280071  
H368     H      0.073840000000     0.548480000000     0.974470000000     0.0496621  
H369     H      0.328130000000     0.455760000000     0.304090000000     0.0503982  
H370     H      0.358540000000     0.456880000000     0.272920000000     0.0252328  
H371     H      0.413080000000     0.973880000000     0.325610000000     0.0287871  
H372     H      0.382660000000     0.974740000000     0.357240000000     0.0498342  
H373     H      0.356540000000     0.954290000000     0.382390000000     0.0495571  
H374     H      0.324920000000     0.955160000000     0.412830000000     0.0286884  
H375     H      0.273170000000     0.477100000000     0.359160000000     0.0283229  
H376     H      0.304420000000     0.478230000000     0.328830000000     0.0506862  
H377     H      0.048040000000     0.955360000000     0.356960000000     0.0497016  
H378     H      0.017590000000     0.956160000000     0.325390000000     0.0286322  
H379     H      0.071750000000     0.474910000000     0.272910000000     0.0249731  
H380     H      0.102140000000     0.476240000000     0.304060000000     0.0507881  
H381     H      0.126550000000     0.454520000000     0.328460000000     0.0508237  
H382     H      0.157710000000     0.455870000000     0.358860000000     0.0250017  
H383     H      0.105220000000     0.974590000000     0.413020000000     0.0287958  
H384     H      0.073640000000     0.975380000000     0.382570000000     0.0497818  
H385     H      0.101770000000     0.452700000000     0.126180000000     0.0506759  
H386     H      0.071440000000     0.453810000000     0.157430000000     0.0284051  
H387     H      0.017780000000     0.975830000000     0.105700000000     0.0285406  
H388     H      0.048220000000     0.976720000000     0.074080000000     0.0493967  
H389     H      0.073360000000     0.956270000000     0.047950000000     0.0497899  
H390     H      0.104990000000     0.957130000000     0.017520000000     0.0286721  
H391     H      0.157690000000     0.474070000000     0.072070000000     0.0243861  
H392     H      0.126520000000     0.475190000000     0.102480000000     0.0503291  
H393     H      0.328270000000     0.977020000000     0.126460000000     0.0505027  
H394     H      0.358650000000     0.976100000000     0.157690000000     0.0284604  
H395     H      0.412680000000     0.455830000000     0.105610000000     0.0285486  
H396     H      0.382230000000     0.454900000000     0.073980000000     0.0494369  
H397     H      0.356630000000     0.475870000000     0.048360000000     0.0495804  
H398     H      0.325000000000     0.474950000000     0.017920000000     0.0286738  
H399     H      0.272910000000     0.954820000000     0.071990000000     0.0288613  
H400     H      0.304140000000     0.953880000000     0.102370000000     0.0503959  
H401     H      0.951810000000     0.602080000000     0.304880000000     0.0492891  
H402     H      0.952090000000     0.571640000000     0.273620000000     0.0247149  
H403     H      0.474640000000     0.517920000000     0.325080000000     0.0280724  
H404     H      0.476240000000     0.548380000000     0.356610000000     0.0497645  
H405     H      0.456150000000     0.573690000000     0.382940000000     0.0495624  
H406     H      0.457690000000     0.605260000000     0.413360000000     0.0277119  
H407     H      0.975040000000     0.657790000000     0.358750000000     0.0236864  
H408     H      0.975360000000     0.626590000000     0.328260000000     0.0494434  
H409     H      0.954960000000     0.882630000000     0.356770000000     0.0498697  
H410     H      0.956610000000     0.913070000000     0.325200000000     0.0281927  
H411     H      0.477270000000     0.858920000000     0.273390000000     0.0249385  
H412     H      0.477340000000     0.828440000000     0.304640000000     0.0498615  
H413     H      0.453070000000     0.804670000000     0.328450000000     0.0498354  
H414     H      0.453130000000     0.773420000000     0.358940000000     0.0249351  
H415     H      0.973890000000     0.825260000000     0.413030000000     0.0281554  
H416     H      0.975560000000     0.856810000000     0.382580000000     0.0498898  
H417     H      0.978500000000     0.804900000000     0.102030000000     0.0492917  
H418     H      0.978250000000     0.773660000000     0.071580000000     0.0247318  
H419     H      0.455610000000     0.825130000000     0.017910000000     0.0278641  
H420     H      0.453990000000     0.856650000000     0.048380000000     0.0496107  
H421     H      0.474070000000     0.882990000000     0.073690000000     0.0496306  
H422     H      0.472530000000     0.913390000000     0.105260000000     0.0277962  
H423     H      0.955260000000     0.858740000000     0.157770000000     0.023668   
H424     H      0.954940000000     0.828250000000     0.126550000000     0.0494     
H425     H      0.455450000000     0.548200000000     0.073980000000     0.0494015  
H426     H      0.456930000000     0.517750000000     0.105480000000     0.0275819  
H427     H      0.976100000000     0.571990000000     0.157750000000     0.0235114  
H428     H      0.976630000000     0.602480000000     0.126560000000     0.0488937  
H429     H      0.953860000000     0.626590000000     0.102430000000     0.0488593  
H430     H      0.954370000000     0.657780000000     0.071930000000     0.0234839  
H431     H      0.473580000000     0.605480000000     0.017730000000     0.0274338  
H432     H      0.475090000000     0.573980000000     0.048190000000     0.0493044  
H433     H      0.002330000000     0.502870000000     0.749960000000     0.209833   
H434     H      0.002880000000     0.927640000000     0.679150000000     0.203877   
H435     H      0.428100000000     0.927970000000     0.749970000000     0.210131   
H436     H      0.427450000000     0.503270000000     0.679240000000     0.204052   
H437     H      0.044120000000     0.921920000000     0.712580000000     0.125799   
H438     H      0.010100000000     0.882890000000     0.711790000000     0.185249   
H439     H      0.422460000000     0.890490000000     0.702550000000     0.148127   
H440     H      0.381920000000     0.925010000000     0.730000000000     0.199627   
H441     H      0.386290000000     0.508970000000     0.712780000000     0.125694   
H442     H      0.420300000000     0.547980000000     0.711770000000     0.18565    
H443     H      0.007950000000     0.540400000000     0.702740000000     0.147697   
H444     H      0.048430000000     0.505930000000     0.729800000000     0.199848   
H445     H      0.384120000000     0.923760000000     0.699730000000     0.20328    
H446     H      0.444090000000     0.566490000000     0.715660000000     0.203586   
H447     H      0.046280000000     0.507050000000     0.699530000000     0.203515   
H448     H      0.986290000000     0.864370000000     0.715570000000     0.203352   
H449     H      0.428040000000     0.750030000000     0.502810000000     0.210304   
H450     H      0.427440000000     0.679150000000     0.927690000000     0.204103   
H451     H      0.002300000000     0.750040000000     0.927980000000     0.209542   
H452     H      0.002980000000     0.679230000000     0.503170000000     0.203442   
H453     H      0.386300000000     0.712650000000     0.921890000000     0.125562   
H454     H      0.420260000000     0.711860000000     0.882900000000     0.185567   
H455     H      0.007860000000     0.702510000000     0.890450000000     0.147708   
H456     H      0.048530000000     0.730450000000     0.925190000000     0.199567   
H457     H      0.044050000000     0.712850000000     0.508950000000     0.125443   
H458     H      0.010100000000     0.711840000000     0.547920000000     0.185196   
H459     H      0.422480000000     0.702700000000     0.540390000000     0.14818    
H460     H      0.381870000000     0.730260000000     0.505700000000     0.199357   
H461     H      0.046160000000     0.700210000000     0.923500000000     0.203245   
H462     H      0.986300000000     0.715700000000     0.566430000000     0.203292   
H463     H      0.384210000000     0.700010000000     0.507270000000     0.203035   
H464     H      0.444080000000     0.715610000000     0.864380000000     0.203114   
H465     H      0.180590000000     0.502940000000     0.502470000000     0.212176   
H466     H      0.251390000000     0.927610000000     0.503150000000     0.203744   
H467     H      0.180620000000     0.927970000000     0.928330000000     0.210096   
H468     H      0.251480000000     0.503250000000     0.927750000000     0.203184   
H469     H      0.217750000000     0.922010000000     0.544410000000     0.125848   
H470     H      0.219250000000     0.882970000000     0.510360000000     0.185504   
H471     H      0.227310000000     0.890470000000     0.922560000000     0.148166   
H472     H      0.200850000000     0.924840000000     0.882250000000     0.199681   
H473     H      0.217800000000     0.508940000000     0.886500000000     0.12597    
H474     H      0.220990000000     0.548220000000     0.920900000000     0.185208   
H475     H      0.215620000000     0.559350000000     0.492130000000     0.141217   
H476     H      0.201430000000     0.503880000000     0.551390000000     0.202599   
H477     H      0.231130000000     0.923820000000     0.884310000000     0.203524   
H478     H      0.213330000000     0.566390000000     0.944030000000     0.195711   
H479     H      0.230240000000     0.509390000000     0.543520000000     0.211677   
H480     H      0.215170000000     0.864420000000     0.486620000000     0.203585   
H481     H      0.356650000000     0.882510000000     0.973930000000     0.0494463  
H482     H      0.325150000000     0.912990000000     0.973200000000     0.02763    
H483     H      0.272810000000     0.859200000000     0.453010000000     0.0237931  
H484     H      0.303980000000     0.828740000000     0.451650000000     0.049983   
H485     H      0.327950000000     0.804150000000     0.473870000000     0.0496721  
H486     H      0.358380000000     0.772970000000     0.473360000000     0.0248635  
H487     H      0.412940000000     0.825410000000     0.955640000000     0.0287589  
H488     H      0.382510000000     0.856990000000     0.954090000000     0.0498275  
H489     H      0.382300000000     0.574150000000     0.477930000000     0.0495401  
H490     H      0.412740000000     0.605750000000     0.476300000000     0.0286623  
H491     H      0.358650000000     0.657470000000     0.955290000000     0.028099   
H492     H      0.328270000000     0.626230000000     0.955000000000     0.0493181  
H493     H      0.303950000000     0.602360000000     0.978000000000     0.0493609  
H494     H      0.272760000000     0.571890000000     0.976870000000     0.0222108  
H495     H      0.325330000000     0.517660000000     0.458480000000     0.0276615  
H496     H      0.356890000000     0.548120000000     0.457670000000     0.0495565  
H497     H      0.125710000000     0.829180000000     0.981190000000     0.050399   
H498     H      0.156980000000     0.859580000000     0.980100000000     0.0250165  
H499     H      0.105480000000     0.912810000000     0.456490000000     0.0280148  
H500     H      0.073940000000     0.882330000000     0.455630000000     0.0496674  
H501     H      0.047520000000     0.857290000000     0.475890000000     0.0498703  
H502     H      0.017140000000     0.825640000000     0.474280000000     0.0286885  
H503     H      0.072090000000     0.772990000000     0.958480000000     0.0254155  
H504     H      0.102520000000     0.804200000000     0.958190000000     0.0502274  
H505     H      0.047940000000     0.574010000000     0.453700000000     0.0495675  
H506     H      0.017530000000     0.605640000000     0.455350000000     0.0285486  
H507     H      0.071980000000     0.657690000000     0.974560000000     0.0282758  
H508     H      0.102400000000     0.626450000000     0.974680000000     0.049608   
H509     H      0.126040000000     0.602160000000     0.951020000000     0.0492994  
H510     H      0.157280000000     0.571710000000     0.951900000000     0.0214244  
H511     H      0.105400000000     0.518010000000     0.473550000000     0.0279362  
H512     H      0.073840000000     0.548480000000     0.474470000000     0.0495989  
H513     H      0.328130000000     0.455760000000     0.804090000000     0.0503939  
H514     H      0.358540000000     0.456880000000     0.772920000000     0.0252308  
H515     H      0.413080000000     0.973880000000     0.825610000000     0.0287887  
H516     H      0.382660000000     0.974740000000     0.857240000000     0.0498393  
H517     H      0.356540000000     0.954290000000     0.882390000000     0.0495694  
H518     H      0.324920000000     0.955160000000     0.912830000000     0.0286935  
H519     H      0.273170000000     0.477100000000     0.859160000000     0.0283106  
H520     H      0.304420000000     0.478230000000     0.828830000000     0.0506832  
H521     H      0.048040000000     0.955360000000     0.856960000000     0.0497084  
H522     H      0.017590000000     0.956160000000     0.825390000000     0.0286332  
H523     H      0.071750000000     0.474910000000     0.772910000000     0.0249701  
H524     H      0.102140000000     0.476240000000     0.804060000000     0.0507846  
H525     H      0.126550000000     0.454520000000     0.828460000000     0.0507717  
H526     H      0.157710000000     0.455870000000     0.858860000000     0.0249987  
H527     H      0.105220000000     0.974590000000     0.913020000000     0.028802   
H528     H      0.073640000000     0.975380000000     0.882570000000     0.0497926  
H529     H      0.101770000000     0.452700000000     0.626180000000     0.0506839  
H530     H      0.071440000000     0.453810000000     0.657430000000     0.0284061  
H531     H      0.017780000000     0.975830000000     0.605700000000     0.0285589  
H532     H      0.048220000000     0.976720000000     0.574080000000     0.0494415  
H533     H      0.073360000000     0.956270000000     0.547950000000     0.0498534  
H534     H      0.104990000000     0.957130000000     0.517520000000     0.0287893  
H535     H      0.157690000000     0.474070000000     0.572070000000     0.0243917  
H536     H      0.126520000000     0.475190000000     0.602480000000     0.0503456  
H537     H      0.328270000000     0.977020000000     0.626460000000     0.0505114  
H538     H      0.358650000000     0.976100000000     0.657690000000     0.0284622  
H539     H      0.412680000000     0.455830000000     0.605610000000     0.0285674  
H540     H      0.382230000000     0.454900000000     0.573980000000     0.0494819  
H541     H      0.356630000000     0.475870000000     0.548360000000     0.0496439  
H542     H      0.325000000000     0.474950000000     0.517920000000     0.0287898  
H543     H      0.272910000000     0.954820000000     0.571990000000     0.0288699  
H544     H      0.304140000000     0.953880000000     0.602370000000     0.0504061  
H545     H      0.951810000000     0.602080000000     0.804880000000     0.0492831  
H546     H      0.952090000000     0.571640000000     0.773620000000     0.0247119  
H547     H      0.474640000000     0.517920000000     0.825080000000     0.028076   
H548     H      0.476240000000     0.548370000000     0.856610000000     0.0497515  
H549     H      0.456150000000     0.573690000000     0.882940000000     0.0495519  
H550     H      0.457690000000     0.605260000000     0.913360000000     0.0277376  
H551     H      0.975040000000     0.657790000000     0.858750000000     0.0236852  
H552     H      0.975360000000     0.626590000000     0.828260000000     0.0494481  
H553     H      0.954960000000     0.882630000000     0.856770000000     0.0498799  
H554     H      0.956610000000     0.913070000000     0.825200000000     0.0281925  
H555     H      0.477270000000     0.858920000000     0.773390000000     0.0249359  
H556     H      0.477340000000     0.828440000000     0.804640000000     0.0498556  
H557     H      0.453070000000     0.804670000000     0.828450000000     0.0498388  
H558     H      0.453130000000     0.773420000000     0.858940000000     0.024923   
H559     H      0.973890000000     0.825250000000     0.913030000000     0.0281832  
H560     H      0.975560000000     0.856810000000     0.882580000000     0.0498947  
H561     H      0.978500000000     0.804900000000     0.602030000000     0.0493068  
H562     H      0.978250000000     0.773660000000     0.571580000000     0.0247512  
H563     H      0.455610000000     0.825130000000     0.517910000000     0.0279673  
H564     H      0.453990000000     0.856650000000     0.548380000000     0.0496837  
H565     H      0.474070000000     0.882990000000     0.573690000000     0.049676   
H566     H      0.472530000000     0.913390000000     0.605260000000     0.027811   
H567     H      0.955260000000     0.858740000000     0.657770000000     0.0236651  
H568     H      0.954950000000     0.828250000000     0.626550000000     0.0494179  
H569     H      0.455450000000     0.548200000000     0.573980000000     0.0494469  
H570     H      0.456930000000     0.517750000000     0.605480000000     0.0276006  
H571     H      0.976100000000     0.571990000000     0.657750000000     0.0235117  
H572     H      0.976630000000     0.602480000000     0.626560000000     0.0489     
H573     H      0.953860000000     0.626590000000     0.602430000000     0.0488682  
H574     H      0.954370000000     0.657780000000     0.571930000000     0.023488   
H575     H      0.473590000000     0.605480000000     0.517740000000     0.0275313  
H576     H      0.475090000000     0.573980000000     0.548190000000     0.0493672  
H577     H      0.502330000000     0.002870000000     0.249960000000     0.209779   
H578     H      0.502880000000     0.427640000000     0.179150000000     0.204346   
H579     H      0.928100000000     0.427970000000     0.249980000000     0.20994    
H580     H      0.927450000000     0.003260000000     0.179240000000     0.203717   
H581     H      0.544120000000     0.421920000000     0.212580000000     0.125873   
H582     H      0.510100000000     0.382890000000     0.211790000000     0.185708   
H583     H      0.922460000000     0.390490000000     0.202550000000     0.148126   
H584     H      0.881920000000     0.425010000000     0.230000000000     0.199711   
H585     H      0.886290000000     0.008970000000     0.212780000000     0.125188   
H586     H      0.920300000000     0.047980000000     0.211770000000     0.185553   
H587     H      0.507960000000     0.040400000000     0.202740000000     0.147981   
H588     H      0.548430000000     0.005930000000     0.229800000000     0.199061   
H589     H      0.884120000000     0.423760000000     0.199740000000     0.20354    
H590     H      0.944100000000     0.066490000000     0.215660000000     0.203474   
H591     H      0.546280000000     0.007050000000     0.199530000000     0.202714   
H592     H      0.486290000000     0.364370000000     0.215570000000     0.203417   
H593     H      0.928040000000     0.250030000000     0.002810000000     0.209866   
H594     H      0.927440000000     0.179150000000     0.427690000000     0.204102   
H595     H      0.502290000000     0.250040000000     0.427980000000     0.210198   
H596     H      0.502980000000     0.179230000000     0.003170000000     0.203421   
H597     H      0.886300000000     0.212650000000     0.421890000000     0.125566   
H598     H      0.920260000000     0.211860000000     0.382900000000     0.185571   
H599     H      0.507860000000     0.202510000000     0.390450000000     0.148177   
H600     H      0.548530000000     0.230450000000     0.425190000000     0.199621   
H601     H      0.544050000000     0.212840000000     0.008950000000     0.125026   
H602     H      0.510100000000     0.211840000000     0.047920000000     0.185568   
H603     H      0.922480000000     0.202700000000     0.040390000000     0.148105   
H604     H      0.881860000000     0.230260000000     0.005700000000     0.198442   
H605     H      0.546160000000     0.200210000000     0.423500000000     0.203308   
H606     H      0.486300000000     0.215710000000     0.066430000000     0.203303   
H607     H      0.884210000000     0.200010000000     0.007270000000     0.202576   
H608     H      0.944080000000     0.215610000000     0.364380000000     0.203139   
H609     H      0.680590000000     0.002940000000     0.002470000000     0.211314   
H610     H      0.751390000000     0.427610000000     0.003150000000     0.203251   
H611     H      0.680620000000     0.427970000000     0.428330000000     0.210111   
H612     H      0.751480000000     0.003250000000     0.427750000000     0.202667   
H613     H      0.717750000000     0.422010000000     0.044410000000     0.125796   
H614     H      0.719250000000     0.382970000000     0.010360000000     0.185344   
H615     H      0.727310000000     0.390470000000     0.422560000000     0.148167   
H616     H      0.700850000000     0.424840000000     0.382250000000     0.199708   
H617     H      0.717800000000     0.008950000000     0.386500000000     0.125296   
H618     H      0.720980000000     0.048220000000     0.420900000000     0.185207   
H619     H      0.715620000000     0.059350000000     0.992130000000     0.141254   
H620     H      0.701430000000     0.003880000000     0.051390000000     0.201863   
H621     H      0.731130000000     0.423820000000     0.384310000000     0.203551   
H622     H      0.713330000000     0.066390000000     0.444030000000     0.195693   
H623     H      0.730240000000     0.009390000000     0.043520000000     0.210904   
H624     H      0.715170000000     0.364420000000     0.986620000000     0.203767   
H625     H      0.856650000000     0.382510000000     0.473930000000     0.0493762  
H626     H      0.825150000000     0.412990000000     0.473200000000     0.0275454  
H627     H      0.772810000000     0.359200000000     0.953010000000     0.0238031  
H628     H      0.803980000000     0.328740000000     0.951650000000     0.0500166  
H629     H      0.827950000000     0.304140000000     0.973870000000     0.0497051  
H630     H      0.858380000000     0.272970000000     0.973360000000     0.0249303  
H631     H      0.912930000000     0.325410000000     0.455640000000     0.0287297  
H632     H      0.882510000000     0.356990000000     0.454090000000     0.0498042  
H633     H      0.882300000000     0.074150000000     0.977930000000     0.0495668  
H634     H      0.912740000000     0.105750000000     0.976300000000     0.0287237  
H635     H      0.858650000000     0.157470000000     0.455290000000     0.0280858  
H636     H      0.828260000000     0.126240000000     0.455000000000     0.0492127  
H637     H      0.803950000000     0.102360000000     0.478000000000     0.0493154  
H638     H      0.772760000000     0.071890000000     0.476870000000     0.0221544  
H639     H      0.825330000000     0.017660000000     0.958480000000     0.0275654  
H640     H      0.856890000000     0.048120000000     0.957670000000     0.0495231  
H641     H      0.625710000000     0.329180000000     0.481190000000     0.0503589  
H642     H      0.656980000000     0.359580000000     0.480100000000     0.024972   
H643     H      0.605480000000     0.412810000000     0.956480000000     0.028047   
H644     H      0.573940000000     0.382330000000     0.955630000000     0.0497757  
H645     H      0.547520000000     0.357290000000     0.975890000000     0.0499883  
H646     H      0.517140000000     0.325640000000     0.974290000000     0.0288616  
H647     H      0.572090000000     0.272990000000     0.458480000000     0.0254123  
H648     H      0.602520000000     0.304200000000     0.458190000000     0.0502227  
H649     H      0.547940000000     0.074010000000     0.953700000000     0.0495977  
H650     H      0.517530000000     0.105640000000     0.955350000000     0.0286959  
H651     H      0.571980000000     0.157690000000     0.474550000000     0.028242   
H652     H      0.602400000000     0.126450000000     0.474680000000     0.0495594  
H653     H      0.626040000000     0.102160000000     0.451020000000     0.0492798  
H654     H      0.657280000000     0.071710000000     0.451900000000     0.0213992  
H655     H      0.605400000000     0.018010000000     0.973550000000     0.0278962  
H656     H      0.573840000000     0.048480000000     0.974470000000     0.0496362  
H657     H      0.828130000000     0.955760000000     0.304090000000     0.0504029  
H658     H      0.858540000000     0.956880000000     0.272920000000     0.0252462  
H659     H      0.913080000000     0.473880000000     0.325610000000     0.0287273  
H660     H      0.882660000000     0.474740000000     0.357240000000     0.0497589  
H661     H      0.856540000000     0.454290000000     0.382390000000     0.0495361  
H662     H      0.824920000000     0.455150000000     0.412830000000     0.0286518  
H663     H      0.773170000000     0.977100000000     0.359160000000     0.0283764  
H664     H      0.804420000000     0.978240000000     0.328830000000     0.0507279  
H665     H      0.548040000000     0.455350000000     0.356960000000     0.0497165  
H666     H      0.517590000000     0.456160000000     0.325390000000     0.0287064  
H667     H      0.571750000000     0.974900000000     0.272910000000     0.0250558  
H668     H      0.602140000000     0.976230000000     0.304060000000     0.0508659  
H669     H      0.626550000000     0.954520000000     0.328460000000     0.0508018  
H670     H      0.657710000000     0.955870000000     0.358860000000     0.0250194  
H671     H      0.605220000000     0.474590000000     0.413020000000     0.028735   
H672     H      0.573640000000     0.475380000000     0.382570000000     0.0497428  
H673     H      0.601770000000     0.952700000000     0.126180000000     0.0507052  
H674     H      0.571440000000     0.953810000000     0.157430000000     0.0284409  
H675     H      0.517780000000     0.475830000000     0.105700000000     0.0285665  
H676     H      0.548220000000     0.476720000000     0.074080000000     0.0493826  
H677     H      0.573360000000     0.456270000000     0.047950000000     0.049797   
H678     H      0.604990000000     0.457130000000     0.017520000000     0.0286498  
H679     H      0.657690000000     0.974070000000     0.072070000000     0.0244517  
H680     H      0.626520000000     0.975180000000     0.102480000000     0.0504188  
H681     H      0.828260000000     0.477020000000     0.126460000000     0.0504147  
H682     H      0.858650000000     0.476090000000     0.157690000000     0.0284212  
H683     H      0.912680000000     0.955820000000     0.105610000000     0.028603   
H684     H      0.882230000000     0.954900000000     0.073980000000     0.0494837  
H685     H      0.856630000000     0.975870000000     0.048360000000     0.0496568  
H686     H      0.825000000000     0.974950000000     0.017920000000     0.0287584  
H687     H      0.772910000000     0.454820000000     0.071990000000     0.0288294  
H688     H      0.804140000000     0.453880000000     0.102370000000     0.0503722  
H689     H      0.451810000000     0.102080000000     0.304880000000     0.0492433  
H690     H      0.452090000000     0.071640000000     0.273620000000     0.0246955  
H691     H      0.974640000000     0.017920000000     0.325080000000     0.0280167  
H692     H      0.976240000000     0.048380000000     0.356610000000     0.0497585  
H693     H      0.956150000000     0.073690000000     0.382940000000     0.0495408  
H694     H      0.957690000000     0.105260000000     0.413360000000     0.0277276  
H695     H      0.475040000000     0.157790000000     0.358750000000     0.0236408  
H696     H      0.475360000000     0.126580000000     0.328260000000     0.0494181  
H697     H      0.454960000000     0.382630000000     0.356770000000     0.0498494  
H698     H      0.456610000000     0.413070000000     0.325200000000     0.0281392  
H699     H      0.977270000000     0.358920000000     0.273390000000     0.0249917  
H700     H      0.977340000000     0.328440000000     0.304640000000     0.0499072  
H701     H      0.953080000000     0.304670000000     0.328450000000     0.0498709  
H702     H      0.953130000000     0.273420000000     0.358940000000     0.0249502  
H703     H      0.473890000000     0.325250000000     0.413030000000     0.0281087  
H704     H      0.475560000000     0.356810000000     0.382580000000     0.0498161  
H705     H      0.478500000000     0.304900000000     0.102030000000     0.0492461  
H706     H      0.478250000000     0.273650000000     0.071580000000     0.0247029  
H707     H      0.955610000000     0.325130000000     0.017910000000     0.0278974  
H708     H      0.953990000000     0.356650000000     0.048380000000     0.0496326  
H709     H      0.974070000000     0.382990000000     0.073690000000     0.0496786  
H710     H      0.972540000000     0.413390000000     0.105260000000     0.0278461  
H711     H      0.455260000000     0.358740000000     0.157770000000     0.0236542  
H712     H      0.454940000000     0.328250000000     0.126550000000     0.0493893  
H713     H      0.955450000000     0.048200000000     0.073980000000     0.0493601  
H714     H      0.956940000000     0.017750000000     0.105480000000     0.0274907  
H715     H      0.476100000000     0.071990000000     0.157750000000     0.0234574  
H716     H      0.476640000000     0.102480000000     0.126560000000     0.0488221  
H717     H      0.453860000000     0.126590000000     0.102430000000     0.048859   
H718     H      0.454380000000     0.157780000000     0.071930000000     0.0234631  
H719     H      0.973590000000     0.105480000000     0.017740000000     0.0274688  
H720     H      0.975090000000     0.073980000000     0.048190000000     0.0493175  
H721     H      0.502330000000     0.002870000000     0.749960000000     0.209777   
H722     H      0.502880000000     0.427640000000     0.679150000000     0.204345   
H723     H      0.928100000000     0.427970000000     0.749970000000     0.21013    
H724     H      0.927450000000     0.003260000000     0.679240000000     0.203718   
H725     H      0.544120000000     0.421920000000     0.712580000000     0.125873   
H726     H      0.510100000000     0.382890000000     0.711790000000     0.185707   
H727     H      0.922460000000     0.390490000000     0.702550000000     0.148134   
H728     H      0.881920000000     0.425010000000     0.730000000000     0.199625   
H729     H      0.886290000000     0.008970000000     0.712780000000     0.125188   
H730     H      0.920300000000     0.047980000000     0.711770000000     0.185553   
H731     H      0.507960000000     0.040400000000     0.702740000000     0.147982   
H732     H      0.548430000000     0.005930000000     0.729800000000     0.199059   
H733     H      0.884120000000     0.423760000000     0.699730000000     0.203274   
H734     H      0.944100000000     0.066490000000     0.715660000000     0.203472   
H735     H      0.546280000000     0.007050000000     0.699530000000     0.202715   
H736     H      0.486290000000     0.364370000000     0.715570000000     0.203416   
H737     H      0.928040000000     0.250030000000     0.502810000000     0.21031    
H738     H      0.927440000000     0.179150000000     0.927690000000     0.2041     
H739     H      0.502290000000     0.250040000000     0.927980000000     0.210195   
H740     H      0.502980000000     0.179230000000     0.503170000000     0.203895   
H741     H      0.886300000000     0.212650000000     0.921890000000     0.125559   
H742     H      0.920260000000     0.211860000000     0.882900000000     0.185566   
H743     H      0.507860000000     0.202510000000     0.890450000000     0.148169   
H744     H      0.548530000000     0.230450000000     0.925190000000     0.199473   
H745     H      0.544050000000     0.212840000000     0.508950000000     0.125476   
H746     H      0.510100000000     0.211840000000     0.547920000000     0.185642   
H747     H      0.922480000000     0.202700000000     0.540390000000     0.148177   
H748     H      0.881860000000     0.230260000000     0.505700000000     0.199042   
H749     H      0.546160000000     0.200210000000     0.923500000000     0.203137   
H750     H      0.486300000000     0.215710000000     0.566430000000     0.203321   
H751     H      0.884210000000     0.200010000000     0.507270000000     0.203185   
H752     H      0.944080000000     0.215610000000     0.864380000000     0.203133   
H753     H      0.680590000000     0.002940000000     0.502470000000     0.211817   
H754     H      0.751390000000     0.427610000000     0.503150000000     0.203735   
H755     H      0.680620000000     0.427970000000     0.928330000000     0.210108   
H756     H      0.751480000000     0.003240000000     0.927750000000     0.202864   
H757     H      0.717750000000     0.422010000000     0.544410000000     0.125844   
H758     H      0.719250000000     0.382970000000     0.510360000000     0.185809   
H759     H      0.727310000000     0.390470000000     0.922560000000     0.148163   
H760     H      0.700850000000     0.424840000000     0.882250000000     0.199703   
H761     H      0.717800000000     0.008950000000     0.886500000000     0.125291   
H762     H      0.720980000000     0.048220000000     0.920900000000     0.185207   
H763     H      0.715620000000     0.059350000000     0.492130000000     0.141226   
H764     H      0.701430000000     0.003870000000     0.551390000000     0.20198    
H765     H      0.731130000000     0.423820000000     0.884310000000     0.203545   
H766     H      0.713330000000     0.066390000000     0.944030000000     0.195709   
H767     H      0.730240000000     0.009390000000     0.543520000000     0.211027   
H768     H      0.715170000000     0.364420000000     0.486620000000     0.203822   
H769     H      0.856650000000     0.382510000000     0.973930000000     0.0494452  
H770     H      0.825150000000     0.412990000000     0.973200000000     0.0276121  
H771     H      0.772810000000     0.359200000000     0.453010000000     0.0237859  
H772     H      0.803980000000     0.328740000000     0.451650000000     0.0499889  
H773     H      0.827950000000     0.304150000000     0.473870000000     0.0496714  
H774     H      0.858380000000     0.272970000000     0.473360000000     0.0248648  
H775     H      0.912930000000     0.325410000000     0.955640000000     0.0287662  
H776     H      0.882510000000     0.356990000000     0.954090000000     0.0498302  
H777     H      0.882300000000     0.074150000000     0.477930000000     0.0494916  
H778     H      0.912740000000     0.105750000000     0.476300000000     0.0286601  
H779     H      0.858650000000     0.157470000000     0.955290000000     0.0280942  
H780     H      0.828270000000     0.126230000000     0.955000000000     0.0493056  
H781     H      0.803950000000     0.102360000000     0.978000000000     0.0493462  
H782     H      0.772760000000     0.071890000000     0.976870000000     0.0221991  
H783     H      0.825330000000     0.017660000000     0.458480000000     0.0275355  
H784     H      0.856890000000     0.048120000000     0.457670000000     0.0494946  
H785     H      0.625710000000     0.329180000000     0.981190000000     0.0504114  
H786     H      0.656980000000     0.359580000000     0.980100000000     0.0250187  
H787     H      0.605480000000     0.412810000000     0.456490000000     0.028015   
H788     H      0.573940000000     0.382330000000     0.455630000000     0.0497481  
H789     H      0.547520000000     0.357290000000     0.475890000000     0.0499253  
H790     H      0.517140000000     0.325640000000     0.474280000000     0.0287989  
H791     H      0.572090000000     0.272990000000     0.958480000000     0.025425   
H792     H      0.602520000000     0.304200000000     0.958190000000     0.0502469  
H793     H      0.547940000000     0.074010000000     0.453700000000     0.0495698  
H794     H      0.517520000000     0.105640000000     0.455350000000     0.0286735  
H795     H      0.571980000000     0.157690000000     0.974560000000     0.0282862  
H796     H      0.602400000000     0.126450000000     0.974680000000     0.049608   
H797     H      0.626040000000     0.102160000000     0.951020000000     0.0492948  
H798     H      0.657280000000     0.071710000000     0.951900000000     0.0214107  
H799     H      0.605400000000     0.018010000000     0.473550000000     0.0278253  
H800     H      0.573840000000     0.048480000000     0.474470000000     0.0495725  
H801     H      0.828130000000     0.955760000000     0.804090000000     0.0504095  
H802     H      0.858540000000     0.956880000000     0.772920000000     0.0252426  
H803     H      0.913080000000     0.473880000000     0.825610000000     0.0287289  
H804     H      0.882660000000     0.474740000000     0.857240000000     0.0497641  
H805     H      0.856540000000     0.454290000000     0.882390000000     0.0495484  
H806     H      0.824920000000     0.455150000000     0.912830000000     0.0286566  
H807     H      0.773170000000     0.977100000000     0.859160000000     0.0283591  
H808     H      0.804420000000     0.978230000000     0.828830000000     0.0507386  
H809     H      0.548040000000     0.455350000000     0.856960000000     0.0497227  
H810     H      0.517590000000     0.456160000000     0.825390000000     0.0287076  
H811     H      0.571750000000     0.974900000000     0.772910000000     0.025053   
H812     H      0.602140000000     0.976230000000     0.804060000000     0.050862   
H813     H      0.626550000000     0.954520000000     0.828460000000     0.050788   
H814     H      0.657710000000     0.955870000000     0.858860000000     0.0250407  
H815     H      0.605220000000     0.474590000000     0.913020000000     0.028752   
H816     H      0.573640000000     0.475380000000     0.882570000000     0.0497477  
H817     H      0.601770000000     0.952700000000     0.626180000000     0.0507163  
H818     H      0.571440000000     0.953810000000     0.657430000000     0.0284417  
H819     H      0.517780000000     0.475830000000     0.605700000000     0.0285852  
H820     H      0.548220000000     0.476720000000     0.574080000000     0.0494267  
H821     H      0.573360000000     0.456270000000     0.547950000000     0.0498631  
H822     H      0.604990000000     0.457130000000     0.517520000000     0.0287628  
H823     H      0.657690000000     0.974070000000     0.572070000000     0.024462   
H824     H      0.626530000000     0.975180000000     0.602480000000     0.050412   
H825     H      0.828260000000     0.477020000000     0.626460000000     0.0504216  
H826     H      0.858650000000     0.476090000000     0.657690000000     0.0284229  
H827     H      0.912680000000     0.955820000000     0.605610000000     0.0286212  
H828     H      0.882230000000     0.954900000000     0.573980000000     0.0495286  
H829     H      0.856630000000     0.975870000000     0.548360000000     0.0497204  
H830     H      0.825000000000     0.974950000000     0.517920000000     0.0288745  
H831     H      0.772910000000     0.454820000000     0.571990000000     0.0288294  
H832     H      0.804140000000     0.453880000000     0.602360000000     0.050437   
H833     H      0.451810000000     0.102080000000     0.804880000000     0.0492383  
H834     H      0.452090000000     0.071640000000     0.773620000000     0.0246929  
H835     H      0.974640000000     0.017920000000     0.825080000000     0.0280185  
H836     H      0.976240000000     0.048380000000     0.856610000000     0.0497637  
H837     H      0.956150000000     0.073690000000     0.882940000000     0.0495269  
H838     H      0.957700000000     0.105260000000     0.913360000000     0.0277553  
H839     H      0.475040000000     0.157790000000     0.858750000000     0.0236366  
H840     H      0.475360000000     0.126580000000     0.828260000000     0.0494152  
H841     H      0.454960000000     0.382630000000     0.856770000000     0.0498545  
H842     H      0.456610000000     0.413070000000     0.825200000000     0.0281408  
H843     H      0.977270000000     0.358920000000     0.773390000000     0.0249813  
H844     H      0.977340000000     0.328440000000     0.804640000000     0.0499229  
H845     H      0.953080000000     0.304670000000     0.828450000000     0.0498647  
H846     H      0.953130000000     0.273420000000     0.858940000000     0.0249466  
H847     H      0.473900000000     0.325250000000     0.913030000000     0.0281221  
H848     H      0.475560000000     0.356810000000     0.882580000000     0.0498263  
H849     H      0.478500000000     0.304900000000     0.602030000000     0.049261   
H850     H      0.478250000000     0.273650000000     0.571580000000     0.0247174  
H851     H      0.955610000000     0.325130000000     0.517910000000     0.0279999  
H852     H      0.953990000000     0.356650000000     0.548380000000     0.0497051  
H853     H      0.974070000000     0.382990000000     0.573690000000     0.0497219  
H854     H      0.972540000000     0.413390000000     0.605260000000     0.0278652  
H855     H      0.455260000000     0.358740000000     0.657770000000     0.0236526  
H856     H      0.454950000000     0.328250000000     0.626550000000     0.0494047  
H857     H      0.955450000000     0.048200000000     0.573980000000     0.0494068  
H858     H      0.956940000000     0.017750000000     0.605480000000     0.0275099  
H859     H      0.476100000000     0.071990000000     0.657750000000     0.0234579  
H860     H      0.476640000000     0.102480000000     0.626560000000     0.0488294  
H861     H      0.453860000000     0.126590000000     0.602430000000     0.0488683  
H862     H      0.454380000000     0.157780000000     0.571930000000     0.0234665  
H863     H      0.973590000000     0.105480000000     0.517740000000     0.0275825  
H864     H      0.975100000000     0.073980000000     0.548190000000     0.0493659  
H865     H      0.502330000000     0.502870000000     0.249960000000     0.210305   
H866     H      0.502880000000     0.927640000000     0.179150000000     0.204344   
H867     H      0.928100000000     0.927970000000     0.249980000000     0.209939   
H868     H      0.927450000000     0.503270000000     0.179240000000     0.204234   
H869     H      0.544120000000     0.921920000000     0.212580000000     0.125863   
H870     H      0.510100000000     0.882890000000     0.211790000000     0.185703   
H871     H      0.922460000000     0.890490000000     0.202550000000     0.148125   
H872     H      0.881920000000     0.925010000000     0.230000000000     0.199709   
H873     H      0.886290000000     0.508970000000     0.212780000000     0.125695   
H874     H      0.920300000000     0.547980000000     0.211770000000     0.185648   
H875     H      0.507960000000     0.540400000000     0.202740000000     0.148065   
H876     H      0.548430000000     0.505930000000     0.229800000000     0.199899   
H877     H      0.884120000000     0.923760000000     0.199740000000     0.203543   
H878     H      0.944090000000     0.566490000000     0.215660000000     0.203604   
H879     H      0.546280000000     0.507050000000     0.199530000000     0.203574   
H880     H      0.486290000000     0.864370000000     0.215570000000     0.20341    
H881     H      0.928040000000     0.750030000000     0.002810000000     0.209866   
H882     H      0.927440000000     0.679150000000     0.427690000000     0.204103   
H883     H      0.502290000000     0.750040000000     0.427980000000     0.210202   
H884     H      0.502980000000     0.679230000000     0.003170000000     0.203423   
H885     H      0.886300000000     0.712650000000     0.421890000000     0.125565   
H886     H      0.920260000000     0.711860000000     0.382900000000     0.18557    
H887     H      0.507860000000     0.702510000000     0.390450000000     0.148177   
H888     H      0.548530000000     0.730450000000     0.425190000000     0.199618   
H889     H      0.544050000000     0.712850000000     0.008950000000     0.125057   
H890     H      0.510100000000     0.711840000000     0.047920000000     0.185573   
H891     H      0.922480000000     0.702700000000     0.040390000000     0.148107   
H892     H      0.881860000000     0.730260000000     0.005700000000     0.198638   
H893     H      0.546160000000     0.700210000000     0.423500000000     0.203307   
H894     H      0.486300000000     0.715700000000     0.066430000000     0.203327   
H895     H      0.884210000000     0.700010000000     0.007270000000     0.202376   
H896     H      0.944080000000     0.715610000000     0.364380000000     0.203136   
H897     H      0.680590000000     0.502940000000     0.002470000000     0.211852   
H898     H      0.751390000000     0.927610000000     0.003150000000     0.203253   
H899     H      0.680620000000     0.927970000000     0.428330000000     0.210101   
H900     H      0.751480000000     0.503250000000     0.427750000000     0.203187   
H901     H      0.717750000000     0.922010000000     0.044410000000     0.125792   
H902     H      0.719250000000     0.882970000000     0.010360000000     0.185312   
H903     H      0.727310000000     0.890470000000     0.422560000000     0.148166   
H904     H      0.700850000000     0.924840000000     0.382250000000     0.199686   
H905     H      0.717800000000     0.508950000000     0.386500000000     0.125803   
H906     H      0.720980000000     0.548220000000     0.420900000000     0.185287   
H907     H      0.715620000000     0.559350000000     0.992130000000     0.141244   
H908     H      0.701430000000     0.503880000000     0.051390000000     0.202565   
H909     H      0.731130000000     0.923820000000     0.384310000000     0.203527   
H910     H      0.713330000000     0.566390000000     0.444030000000     0.195716   
H911     H      0.730240000000     0.509390000000     0.043520000000     0.211591   
H912     H      0.715170000000     0.864420000000     0.986620000000     0.203488   
H913     H      0.856650000000     0.882510000000     0.473930000000     0.0493845  
H914     H      0.825150000000     0.912990000000     0.473200000000     0.027565   
H915     H      0.772810000000     0.859200000000     0.953010000000     0.0237999  
H916     H      0.803980000000     0.828740000000     0.951650000000     0.050013   
H917     H      0.827950000000     0.804140000000     0.973870000000     0.0496802  
H918     H      0.858380000000     0.772970000000     0.973360000000     0.024933   
H919     H      0.912930000000     0.825410000000     0.455640000000     0.0287292  
H920     H      0.882510000000     0.856990000000     0.454090000000     0.0498106  
H921     H      0.882300000000     0.574150000000     0.977930000000     0.0496177  
H922     H      0.912740000000     0.605750000000     0.976300000000     0.0287441  
H923     H      0.858650000000     0.657470000000     0.455290000000     0.0280836  
H924     H      0.828260000000     0.626230000000     0.455000000000     0.0492369  
H925     H      0.803950000000     0.602360000000     0.478000000000     0.0493236  
H926     H      0.772760000000     0.571890000000     0.476870000000     0.0221635  
H927     H      0.825330000000     0.517660000000     0.958480000000     0.0276928  
H928     H      0.856890000000     0.548120000000     0.957670000000     0.0495941  
H929     H      0.625710000000     0.829180000000     0.481190000000     0.0503541  
H930     H      0.656980000000     0.859580000000     0.480100000000     0.0249708  
H931     H      0.605480000000     0.912810000000     0.956480000000     0.0280661  
H932     H      0.573940000000     0.882330000000     0.955630000000     0.0497853  
H933     H      0.547520000000     0.857290000000     0.975890000000     0.0499931  
H934     H      0.517140000000     0.825640000000     0.974290000000     0.0288633  
H935     H      0.572090000000     0.772990000000     0.458480000000     0.0254086  
H936     H      0.602520000000     0.804200000000     0.458190000000     0.050218   
H937     H      0.547940000000     0.574010000000     0.953700000000     0.0496552  
H938     H      0.517530000000     0.605640000000     0.955350000000     0.0286928  
H939     H      0.571980000000     0.657690000000     0.474550000000     0.0282346  
H940     H      0.602400000000     0.626450000000     0.474680000000     0.0495739  
H941     H      0.626040000000     0.602160000000     0.451020000000     0.0492899  
H942     H      0.657280000000     0.571710000000     0.451900000000     0.0214114  
H943     H      0.605400000000     0.518010000000     0.973550000000     0.0280247  
H944     H      0.573840000000     0.548480000000     0.974470000000     0.0497053  
H945     H      0.828130000000     0.455760000000     0.304090000000     0.0503928  
H946     H      0.858540000000     0.456880000000     0.272920000000     0.0252288  
H947     H      0.913080000000     0.973880000000     0.325610000000     0.028803   
H948     H      0.882660000000     0.974740000000     0.357240000000     0.0498427  
H949     H      0.856540000000     0.954290000000     0.382390000000     0.0495624  
H950     H      0.824920000000     0.955160000000     0.412830000000     0.02869    
H951     H      0.773170000000     0.477100000000     0.359160000000     0.0283301  
H952     H      0.804420000000     0.478230000000     0.328830000000     0.0506621  
H953     H      0.548040000000     0.955360000000     0.356960000000     0.0497646  
H954     H      0.517590000000     0.956160000000     0.325390000000     0.0287427  
H955     H      0.571750000000     0.474910000000     0.272910000000     0.0249771  
H956     H      0.602140000000     0.476230000000     0.304060000000     0.0508126  
H957     H      0.626550000000     0.454520000000     0.328460000000     0.0508279  
H958     H      0.657710000000     0.455870000000     0.358860000000     0.0250021  
H959     H      0.605220000000     0.974590000000     0.413020000000     0.0288161  
H960     H      0.573640000000     0.975380000000     0.382570000000     0.049809   
H961     H      0.601770000000     0.452700000000     0.126180000000     0.0506854  
H962     H      0.571440000000     0.453810000000     0.157430000000     0.0284117  
H963     H      0.517780000000     0.975830000000     0.105700000000     0.0286516  
H964     H      0.548220000000     0.976720000000     0.074080000000     0.0494575  
H965     H      0.573360000000     0.956270000000     0.047950000000     0.0498343  
H966     H      0.604990000000     0.957130000000     0.017520000000     0.0286931  
H967     H      0.657690000000     0.474070000000     0.072070000000     0.0243863  
H968     H      0.626520000000     0.475190000000     0.102480000000     0.0503356  
H969     H      0.828260000000     0.977020000000     0.126460000000     0.0504962  
H970     H      0.858650000000     0.976090000000     0.157690000000     0.0284624  
H971     H      0.912680000000     0.455830000000     0.105610000000     0.028566   
H972     H      0.882230000000     0.454900000000     0.073980000000     0.0494459  
H973     H      0.856630000000     0.475870000000     0.048360000000     0.0495844  
H974     H      0.825000000000     0.474950000000     0.017920000000     0.0286762  
H975     H      0.772910000000     0.954820000000     0.071990000000     0.0288556  
H976     H      0.804140000000     0.953880000000     0.102370000000     0.0503924  
H977     H      0.451810000000     0.602080000000     0.304880000000     0.0492677  
H978     H      0.452090000000     0.571640000000     0.273620000000     0.0247094  
H979     H      0.974640000000     0.517920000000     0.325080000000     0.0281421  
H980     H      0.976240000000     0.548380000000     0.356610000000     0.0498292  
H981     H      0.956150000000     0.573690000000     0.382940000000     0.0495924  
H982     H      0.957690000000     0.605260000000     0.413360000000     0.0277487  
H983     H      0.475040000000     0.657790000000     0.358750000000     0.0236429  
H984     H      0.475360000000     0.626590000000     0.328260000000     0.0494047  
H985     H      0.454960000000     0.882630000000     0.356770000000     0.0498582  
H986     H      0.456610000000     0.913070000000     0.325200000000     0.0281568  
H987     H      0.977270000000     0.858920000000     0.273390000000     0.0249814  
H988     H      0.977340000000     0.828440000000     0.304640000000     0.0499065  
H989     H      0.953080000000     0.804670000000     0.328450000000     0.0498654  
H990     H      0.953130000000     0.773420000000     0.358940000000     0.0249435  
H991     H      0.473890000000     0.825250000000     0.413030000000     0.028098   
H992     H      0.475560000000     0.856810000000     0.382580000000     0.0498227  
H993     H      0.478500000000     0.804900000000     0.102030000000     0.0492395  
H994     H      0.478250000000     0.773660000000     0.071580000000     0.0246923  
H995     H      0.955610000000     0.825130000000     0.017910000000     0.0278984  
H996     H      0.953990000000     0.856650000000     0.048380000000     0.0496389  
H997     H      0.974070000000     0.882990000000     0.073690000000     0.0496872  
H998     H      0.972540000000     0.913390000000     0.105260000000     0.0278654  
H999     H      0.455260000000     0.858740000000     0.157770000000     0.0236479  
H1000    H      0.454940000000     0.828250000000     0.126550000000     0.0493958  
H1001    H      0.955450000000     0.548200000000     0.073980000000     0.0494264  
H1002    H      0.956930000000     0.517750000000     0.105480000000     0.0276216  
H1003    H      0.476100000000     0.571990000000     0.157750000000     0.0234702  
H1004    H      0.476640000000     0.602480000000     0.126560000000     0.0488283  
H1005    H      0.453860000000     0.626590000000     0.102430000000     0.0488656  
H1006    H      0.454380000000     0.657780000000     0.071930000000     0.0234599  
H1007    H      0.973590000000     0.605480000000     0.017740000000     0.0274892  
H1008    H      0.975090000000     0.573980000000     0.048190000000     0.0493695  
H1009    H      0.502330000000     0.502870000000     0.749960000000     0.210303   
H1010    H      0.502880000000     0.927640000000     0.679150000000     0.204343   
H1011    H      0.928100000000     0.927970000000     0.749970000000     0.210129   
H1012    H      0.927450000000     0.503260000000     0.679240000000     0.204431   
H1013    H      0.544120000000     0.921920000000     0.712580000000     0.125863   
H1014    H      0.510100000000     0.882890000000     0.711790000000     0.185703   
H1015    H      0.922460000000     0.890490000000     0.702550000000     0.148129   
H1016    H      0.881920000000     0.925010000000     0.730000000000     0.199623   
H1017    H      0.886290000000     0.508970000000     0.712780000000     0.125693   
H1018    H      0.920300000000     0.547980000000     0.711770000000     0.185647   
H1019    H      0.507960000000     0.540400000000     0.702740000000     0.148066   
H1020    H      0.548430000000     0.505930000000     0.729800000000     0.199897   
H1021    H      0.884120000000     0.923760000000     0.699730000000     0.203277   
H1022    H      0.944090000000     0.566490000000     0.715660000000     0.203602   
H1023    H      0.546280000000     0.507050000000     0.699530000000     0.203575   
H1024    H      0.486290000000     0.864370000000     0.715570000000     0.203408   
H1025    H      0.928040000000     0.750030000000     0.502810000000     0.210309   
H1026    H      0.927440000000     0.679150000000     0.927690000000     0.204101   
H1027    H      0.502290000000     0.750040000000     0.927980000000     0.210198   
H1028    H      0.502980000000     0.679230000000     0.503170000000     0.203897   
H1029    H      0.886300000000     0.712650000000     0.921890000000     0.125559   
H1030    H      0.920260000000     0.711860000000     0.882900000000     0.185565   
H1031    H      0.507860000000     0.702510000000     0.890450000000     0.148169   
H1032    H      0.548530000000     0.730450000000     0.925190000000     0.199469   
H1033    H      0.544050000000     0.712850000000     0.508950000000     0.125506   
H1034    H      0.510100000000     0.711840000000     0.547920000000     0.185647   
H1035    H      0.922480000000     0.702700000000     0.540390000000     0.148179   
H1036    H      0.881860000000     0.730260000000     0.505700000000     0.199238   
H1037    H      0.546160000000     0.700210000000     0.923500000000     0.203137   
H1038    H      0.486300000000     0.715700000000     0.566430000000     0.203346   
H1039    H      0.884210000000     0.700010000000     0.507270000000     0.202985   
H1040    H      0.944080000000     0.715610000000     0.864380000000     0.203131   
H1041    H      0.680590000000     0.502940000000     0.502470000000     0.212177   
H1042    H      0.751390000000     0.927610000000     0.503150000000     0.203742   
H1043    H      0.680620000000     0.927970000000     0.928330000000     0.210097   
H1044    H      0.751480000000     0.503250000000     0.927750000000     0.203184   
H1045    H      0.717750000000     0.922010000000     0.544410000000     0.125848   
H1046    H      0.719250000000     0.882970000000     0.510360000000     0.185503   
H1047    H      0.727310000000     0.890470000000     0.922560000000     0.148163   
H1048    H      0.700850000000     0.924840000000     0.882250000000     0.199681   
H1049    H      0.717800000000     0.508940000000     0.886500000000     0.125966   
H1050    H      0.720980000000     0.548220000000     0.920900000000     0.185282   
H1051    H      0.715620000000     0.559350000000     0.492130000000     0.141216   
H1052    H      0.701430000000     0.503880000000     0.551390000000     0.202599   
H1053    H      0.731130000000     0.923820000000     0.884310000000     0.203522   
H1054    H      0.713330000000     0.566390000000     0.944030000000     0.195731   
H1055    H      0.730240000000     0.509390000000     0.543520000000     0.211676   
H1056    H      0.715170000000     0.864420000000     0.486620000000     0.203584   
H1057    H      0.856650000000     0.882510000000     0.973930000000     0.0494563  
H1058    H      0.825150000000     0.912990000000     0.973200000000     0.0276302  
H1059    H      0.772810000000     0.859200000000     0.453010000000     0.0237904  
H1060    H      0.803980000000     0.828740000000     0.451650000000     0.049979   
H1061    H      0.827950000000     0.804150000000     0.473870000000     0.0496672  
H1062    H      0.858380000000     0.772970000000     0.473360000000     0.0248594  
H1063    H      0.912930000000     0.825410000000     0.955640000000     0.0287677  
H1064    H      0.882510000000     0.856990000000     0.954090000000     0.0498319  
H1065    H      0.882300000000     0.574150000000     0.477930000000     0.0495433  
H1066    H      0.912740000000     0.605750000000     0.476300000000     0.0286797  
H1067    H      0.858650000000     0.657470000000     0.955290000000     0.0280942  
H1068    H      0.828270000000     0.626230000000     0.955000000000     0.0493133  
H1069    H      0.803950000000     0.602360000000     0.978000000000     0.0493566  
H1070    H      0.772760000000     0.571890000000     0.976870000000     0.0222087  
H1071    H      0.825330000000     0.517660000000     0.458480000000     0.0276624  
H1072    H      0.856890000000     0.548120000000     0.457670000000     0.0495647  
H1073    H      0.625710000000     0.829180000000     0.981190000000     0.0504077  
H1074    H      0.656980000000     0.859580000000     0.980100000000     0.0250176  
H1075    H      0.605480000000     0.912810000000     0.456490000000     0.028034   
H1076    H      0.573940000000     0.882330000000     0.455630000000     0.0497577  
H1077    H      0.547520000000     0.857290000000     0.475890000000     0.049932   
H1078    H      0.517140000000     0.825640000000     0.474280000000     0.0287997  
H1079    H      0.572090000000     0.772990000000     0.958480000000     0.025428   
H1080    H      0.602520000000     0.804200000000     0.958190000000     0.0502377  
H1081    H      0.547940000000     0.574010000000     0.453700000000     0.049629   
H1082    H      0.517520000000     0.605640000000     0.455350000000     0.0286696  
H1083    H      0.571980000000     0.657690000000     0.974560000000     0.0282852  
H1084    H      0.602400000000     0.626450000000     0.974680000000     0.0496174  
H1085    H      0.626040000000     0.602160000000     0.951020000000     0.049307   
H1086    H      0.657280000000     0.571710000000     0.951900000000     0.0214229  
H1087    H      0.605400000000     0.518010000000     0.473550000000     0.027954   
H1088    H      0.573840000000     0.548480000000     0.474470000000     0.0496421  
H1089    H      0.828130000000     0.455760000000     0.804090000000     0.0503884  
H1090    H      0.858540000000     0.456880000000     0.772920000000     0.0252268  
H1091    H      0.913080000000     0.973880000000     0.825610000000     0.0288046  
H1092    H      0.882660000000     0.974740000000     0.857240000000     0.0498475  
H1093    H      0.856540000000     0.954290000000     0.882390000000     0.0495762  
H1094    H      0.824920000000     0.955160000000     0.912830000000     0.0286942  
H1095    H      0.773170000000     0.477100000000     0.859160000000     0.0283179  
H1096    H      0.804420000000     0.478230000000     0.828830000000     0.0506591  
H1097    H      0.548040000000     0.955360000000     0.856960000000     0.0497705  
H1098    H      0.517590000000     0.956160000000     0.825390000000     0.028744   
H1099    H      0.571750000000     0.474900000000     0.772910000000     0.02498    
H1100    H      0.602140000000     0.476230000000     0.804060000000     0.0508078  
H1101    H      0.626550000000     0.454520000000     0.828460000000     0.0507759  
H1102    H      0.657710000000     0.455870000000     0.858860000000     0.024999   
H1103    H      0.605220000000     0.974590000000     0.913020000000     0.0288211  
H1104    H      0.573640000000     0.975380000000     0.882570000000     0.0498232  
H1105    H      0.601770000000     0.452700000000     0.626180000000     0.0506904  
H1106    H      0.571440000000     0.453810000000     0.657430000000     0.0284128  
H1107    H      0.517780000000     0.975830000000     0.605700000000     0.0286698  
H1108    H      0.548220000000     0.976720000000     0.574080000000     0.0495034  
H1109    H      0.573360000000     0.956270000000     0.547950000000     0.0498968  
H1110    H      0.604990000000     0.957130000000     0.517520000000     0.0288083  
H1111    H      0.657690000000     0.474070000000     0.572070000000     0.0243893  
H1112    H      0.626520000000     0.475180000000     0.602480000000     0.0503658  
H1113    H      0.828260000000     0.977020000000     0.626460000000     0.0505052  
H1114    H      0.858650000000     0.976090000000     0.657690000000     0.0284642  
H1115    H      0.912680000000     0.455830000000     0.605610000000     0.0285851  
H1116    H      0.882230000000     0.454900000000     0.573980000000     0.0494883  
H1117    H      0.856630000000     0.475870000000     0.548360000000     0.0496526  
H1118    H      0.825000000000     0.474950000000     0.517920000000     0.0287897  
H1119    H      0.772910000000     0.954820000000     0.571990000000     0.0288667  
H1120    H      0.804140000000     0.953880000000     0.602370000000     0.050403   
H1121    H      0.451810000000     0.602080000000     0.804880000000     0.0492491  
H1122    H      0.452090000000     0.571640000000     0.773620000000     0.0247032  
H1123    H      0.974640000000     0.517920000000     0.825080000000     0.0281437  
H1124    H      0.976240000000     0.548380000000     0.856610000000     0.0498346  
H1125    H      0.956150000000     0.573690000000     0.882940000000     0.049578   
H1126    H      0.957690000000     0.605260000000     0.913360000000     0.0277752  
H1127    H      0.475040000000     0.657790000000     0.858750000000     0.0236363  
H1128    H      0.475360000000     0.626580000000     0.828260000000     0.0494216  
H1129    H      0.454960000000     0.882630000000     0.856770000000     0.0498629  
H1130    H      0.456610000000     0.913070000000     0.825200000000     0.0281586  
H1131    H      0.977270000000     0.858920000000     0.773390000000     0.0249709  
H1132    H      0.977340000000     0.828440000000     0.804640000000     0.0499224  
H1133    H      0.953080000000     0.804670000000     0.828450000000     0.0498588  
H1134    H      0.953130000000     0.773420000000     0.858940000000     0.0249402  
H1135    H      0.473900000000     0.825250000000     0.913030000000     0.0280881  
H1136    H      0.475560000000     0.856810000000     0.882580000000     0.0498391  
H1137    H      0.478500000000     0.804900000000     0.602030000000     0.0492585  
H1138    H      0.478250000000     0.773660000000     0.571580000000     0.0247068  
H1139    H      0.955610000000     0.825130000000     0.517910000000     0.0280009  
H1140    H      0.953990000000     0.856650000000     0.548380000000     0.049711   
H1141    H      0.974070000000     0.882990000000     0.573690000000     0.0497335  
H1142    H      0.972540000000     0.913390000000     0.605260000000     0.0278796  
H1143    H      0.455260000000     0.858740000000     0.657770000000     0.0236494  
H1144    H      0.454940000000     0.828250000000     0.626550000000     0.0493884  
H1145    H      0.955450000000     0.548200000000     0.573980000000     0.049471   
H1146    H      0.956940000000     0.517750000000     0.605480000000     0.0276413  
H1147    H      0.476100000000     0.571990000000     0.657750000000     0.0234706  
H1148    H      0.476640000000     0.602480000000     0.626560000000     0.0488356  
H1149    H      0.453860000000     0.626590000000     0.602430000000     0.048875   
H1150    H      0.454380000000     0.657780000000     0.571930000000     0.0234634  
H1151    H      0.973590000000     0.605480000000     0.517740000000     0.0276001  
H1152    H      0.975090000000     0.573980000000     0.548190000000     0.0494318  
N1       N      0.296540000000     0.388380000000     0.463380000000    -0.188948   
N2       N      0.387970000000     0.296760000000     0.964370000000    -0.188488   
N3       N      0.388010000000     0.134060000000     0.965920000000    -0.188343   
N4       N      0.296590000000     0.042480000000     0.967390000000    -0.189099   
N5       N      0.133700000000     0.388480000000     0.468020000000    -0.18816    
N6       N      0.042290000000     0.296880000000     0.466510000000    -0.18831    
N7       N      0.042430000000     0.134120000000     0.464850000000    -0.18832    
N8       N      0.133810000000     0.042560000000     0.962980000000    -0.188854   
N9       N      0.388120000000     0.465600000000     0.296830000000    -0.188376   
N10      N      0.296600000000     0.465920000000     0.388290000000    -0.188423   
N11      N      0.042370000000     0.965310000000     0.296720000000    -0.188416   
N12      N      0.133890000000     0.465450000000     0.388230000000    -0.188402   
N13      N      0.042310000000     0.965030000000     0.134010000000    -0.188403   
N14      N      0.133780000000     0.965380000000     0.042490000000    -0.188485   
N15      N      0.387970000000     0.465760000000     0.134100000000    -0.188382   
N16      N      0.296500000000     0.965080000000     0.042640000000    -0.1882     
N17      N      0.963550000000     0.042480000000     0.296890000000    -0.188065   
N18      N      0.966180000000     0.133980000000     0.388370000000    -0.188846   
N19      N      0.466770000000     0.388310000000     0.296830000000    -0.188009   
N20      N      0.963680000000     0.296870000000     0.388300000000    -0.187985   
N21      N      0.466750000000     0.296930000000     0.042440000000    -0.18811    
N22      N      0.464090000000     0.388380000000     0.133970000000    -0.188839   
N23      N      0.966320000000     0.042570000000     0.134060000000    -0.188922   
N24      N      0.464170000000     0.134070000000     0.042530000000    -0.188972   
N25      N      0.296540000000     0.388380000000     0.963390000000    -0.188911   
N26      N      0.387970000000     0.296760000000     0.464370000000    -0.188512   
N27      N      0.388010000000     0.134060000000     0.465920000000    -0.18834    
N28      N      0.296590000000     0.042480000000     0.467400000000    -0.189105   
N29      N      0.133700000000     0.388480000000     0.968020000000    -0.188151   
N30      N      0.042290000000     0.296880000000     0.966510000000    -0.188315   
N31      N      0.042430000000     0.134120000000     0.964850000000    -0.188298   
N32      N      0.133810000000     0.042560000000     0.462980000000    -0.188863   
N33      N      0.388120000000     0.465600000000     0.796830000000    -0.188377   
N34      N      0.296600000000     0.465920000000     0.888290000000    -0.188522   
N35      N      0.042370000000     0.965310000000     0.796720000000    -0.188417   
N36      N      0.133890000000     0.465450000000     0.888230000000    -0.1884     
N37      N      0.042310000000     0.965030000000     0.634010000000    -0.188402   
N38      N      0.133780000000     0.965380000000     0.542490000000    -0.188463   
N39      N      0.387970000000     0.465760000000     0.634100000000    -0.188382   
N40      N      0.296500000000     0.965080000000     0.542640000000    -0.188179   
N41      N      0.963550000000     0.042480000000     0.796890000000    -0.188066   
N42      N      0.966180000000     0.133980000000     0.888370000000    -0.188838   
N43      N      0.466770000000     0.388310000000     0.796830000000    -0.188009   
N44      N      0.963680000000     0.296870000000     0.888300000000    -0.187985   
N45      N      0.466750000000     0.296930000000     0.542440000000    -0.188097   
N46      N      0.464090000000     0.388380000000     0.633970000000    -0.188871   
N47      N      0.966320000000     0.042570000000     0.634060000000    -0.188911   
N48      N      0.464170000000     0.134070000000     0.542530000000    -0.188956   
N49      N      0.296540000000     0.888380000000     0.463380000000    -0.188935   
N50      N      0.387970000000     0.796760000000     0.964360000000    -0.188485   
N51      N      0.388010000000     0.634060000000     0.965920000000    -0.188343   
N52      N      0.296590000000     0.542480000000     0.967390000000    -0.18908    
N53      N      0.133700000000     0.888480000000     0.468020000000    -0.188158   
N54      N      0.042290000000     0.796880000000     0.466510000000    -0.188312   
N55      N      0.042430000000     0.634120000000     0.464850000000    -0.188358   
N56      N      0.133810000000     0.542560000000     0.962980000000    -0.188834   
N57      N      0.388120000000     0.965600000000     0.296830000000    -0.188365   
N58      N      0.296600000000     0.965920000000     0.388290000000    -0.188407   
N59      N      0.042370000000     0.465310000000     0.296720000000    -0.188415   
N60      N      0.133890000000     0.965450000000     0.388230000000    -0.188391   
N61      N      0.042310000000     0.465030000000     0.134010000000    -0.188417   
N62      N      0.133780000000     0.465380000000     0.042490000000    -0.188485   
N63      N      0.387970000000     0.965760000000     0.134100000000    -0.188394   
N64      N      0.296500000000     0.465080000000     0.042640000000    -0.18823    
N65      N      0.963550000000     0.542480000000     0.296890000000    -0.188046   
N66      N      0.966180000000     0.633980000000     0.388370000000    -0.188853   
N67      N      0.466770000000     0.888310000000     0.296830000000    -0.188009   
N68      N      0.963680000000     0.796870000000     0.388300000000    -0.188014   
N69      N      0.466750000000     0.796930000000     0.042440000000    -0.188109   
N70      N      0.464090000000     0.888380000000     0.133970000000    -0.188841   
N71      N      0.966320000000     0.542570000000     0.134060000000    -0.188892   
N72      N      0.464170000000     0.634070000000     0.042530000000    -0.188973   
N73      N      0.296540000000     0.888380000000     0.963390000000    -0.188912   
N74      N      0.387970000000     0.796760000000     0.464370000000    -0.188514   
N75      N      0.388010000000     0.634060000000     0.465920000000    -0.188343   
N76      N      0.296590000000     0.542480000000     0.467400000000    -0.189086   
N77      N      0.133700000000     0.888480000000     0.968020000000    -0.188151   
N78      N      0.042290000000     0.796880000000     0.966510000000    -0.188303   
N79      N      0.042430000000     0.634120000000     0.964850000000    -0.188337   
N80      N      0.133810000000     0.542560000000     0.462980000000    -0.188844   
N81      N      0.388120000000     0.965600000000     0.796830000000    -0.188366   
N82      N      0.296600000000     0.965920000000     0.888290000000    -0.188507   
N83      N      0.042370000000     0.465310000000     0.796720000000    -0.188416   
N84      N      0.133890000000     0.965450000000     0.888240000000    -0.18844    
N85      N      0.042310000000     0.465030000000     0.634010000000    -0.188417   
N86      N      0.133780000000     0.465380000000     0.542490000000    -0.188476   
N87      N      0.387970000000     0.965760000000     0.634100000000    -0.188393   
N88      N      0.296500000000     0.465080000000     0.542640000000    -0.188208   
N89      N      0.963550000000     0.542480000000     0.796890000000    -0.188047   
N90      N      0.966180000000     0.633980000000     0.888370000000    -0.188836   
N91      N      0.466770000000     0.888310000000     0.796830000000    -0.188009   
N92      N      0.963680000000     0.796870000000     0.888300000000    -0.188012   
N93      N      0.466750000000     0.796930000000     0.542440000000    -0.188096   
N94      N      0.464090000000     0.888380000000     0.633970000000    -0.188881   
N95      N      0.966320000000     0.542570000000     0.634060000000    -0.188891   
N96      N      0.464170000000     0.634070000000     0.542530000000    -0.188957   
N97      N      0.796540000000     0.388380000000     0.463380000000    -0.188949   
N98      N      0.887970000000     0.296760000000     0.964370000000    -0.188492   
N99      N      0.888010000000     0.134060000000     0.965920000000    -0.188343   
N100     N      0.796590000000     0.042480000000     0.967390000000    -0.189099   
N101     N      0.633700000000     0.388480000000     0.468020000000    -0.188161   
N102     N      0.542290000000     0.296880000000     0.466510000000    -0.188293   
N103     N      0.542430000000     0.134120000000     0.464850000000    -0.188295   
N104     N      0.633810000000     0.042560000000     0.962980000000    -0.188854   
N105     N      0.888120000000     0.465600000000     0.296830000000    -0.188376   
N106     N      0.796600000000     0.465920000000     0.388290000000    -0.188415   
N107     N      0.542370000000     0.965310000000     0.296720000000    -0.188397   
N108     N      0.633890000000     0.465450000000     0.388230000000    -0.188402   
N109     N      0.542310000000     0.965030000000     0.134010000000    -0.188385   
N110     N      0.633780000000     0.965380000000     0.042490000000    -0.188484   
N111     N      0.887970000000     0.465760000000     0.134100000000    -0.188382   
N112     N      0.796500000000     0.965080000000     0.042640000000    -0.188202   
N113     N      0.463550000000     0.042480000000     0.296890000000    -0.188069   
N114     N      0.466180000000     0.133980000000     0.388370000000    -0.18886    
N115     N      0.966770000000     0.388310000000     0.296830000000    -0.187984   
N116     N      0.463680000000     0.296870000000     0.388300000000    -0.187989   
N117     N      0.966750000000     0.296930000000     0.042440000000    -0.1881     
N118     N      0.964090000000     0.388380000000     0.133970000000    -0.188819   
N119     N      0.466330000000     0.042570000000     0.134060000000    -0.188919   
N120     N      0.964170000000     0.134070000000     0.042530000000    -0.188953   
N121     N      0.796540000000     0.388380000000     0.963390000000    -0.188938   
N122     N      0.887970000000     0.296760000000     0.464370000000    -0.188509   
N123     N      0.888010000000     0.134060000000     0.465920000000    -0.188333   
N124     N      0.796590000000     0.042480000000     0.467400000000    -0.189106   
N125     N      0.633700000000     0.388480000000     0.968020000000    -0.188151   
N126     N      0.542290000000     0.296880000000     0.966510000000    -0.188297   
N127     N      0.542430000000     0.134120000000     0.964850000000    -0.188283   
N128     N      0.633810000000     0.042560000000     0.462980000000    -0.188863   
N129     N      0.888120000000     0.465600000000     0.796830000000    -0.188377   
N130     N      0.796600000000     0.465920000000     0.888290000000    -0.188514   
N131     N      0.542370000000     0.965310000000     0.796720000000    -0.188398   
N132     N      0.633890000000     0.465450000000     0.888230000000    -0.1884     
N133     N      0.542310000000     0.965030000000     0.634010000000    -0.188386   
N134     N      0.633780000000     0.965380000000     0.542490000000    -0.18846    
N135     N      0.887970000000     0.465760000000     0.634100000000    -0.188381   
N136     N      0.796500000000     0.965080000000     0.542640000000    -0.188181   
N137     N      0.463550000000     0.042480000000     0.796890000000    -0.188069   
N138     N      0.466180000000     0.133980000000     0.888370000000    -0.188851   
N139     N      0.966770000000     0.388310000000     0.796830000000    -0.188011   
N140     N      0.463680000000     0.296870000000     0.888300000000    -0.188004   
N141     N      0.966750000000     0.296930000000     0.542440000000    -0.188087   
N142     N      0.964090000000     0.388380000000     0.633970000000    -0.188817   
N143     N      0.466330000000     0.042570000000     0.634060000000    -0.188918   
N144     N      0.964170000000     0.134070000000     0.542530000000    -0.188934   
N145     N      0.796540000000     0.888380000000     0.463380000000    -0.188936   
N146     N      0.887970000000     0.796760000000     0.964370000000    -0.188467   
N147     N      0.888010000000     0.634060000000     0.965920000000    -0.188343   
N148     N      0.796590000000     0.542480000000     0.967390000000    -0.18908    
N149     N      0.633700000000     0.888480000000     0.468020000000    -0.188159   
N150     N      0.542290000000     0.796880000000     0.466510000000    -0.188295   
N151     N      0.542430000000     0.634120000000     0.464850000000    -0.188345   
N152     N      0.633810000000     0.542560000000     0.962980000000    -0.188835   
N153     N      0.888120000000     0.965600000000     0.296830000000    -0.188365   
N154     N      0.796600000000     0.965920000000     0.388290000000    -0.188408   
N155     N      0.542370000000     0.465310000000     0.296720000000    -0.188401   
N156     N      0.633890000000     0.965450000000     0.388230000000    -0.188388   
N157     N      0.542310000000     0.465030000000     0.134010000000    -0.188401   
N158     N      0.633780000000     0.465380000000     0.042490000000    -0.188485   
N159     N      0.887970000000     0.965760000000     0.134100000000    -0.188398   
N160     N      0.796500000000     0.465080000000     0.042640000000    -0.188217   
N161     N      0.463550000000     0.542480000000     0.296890000000    -0.188041   
N162     N      0.466180000000     0.633980000000     0.388370000000    -0.188856   
N163     N      0.966770000000     0.888310000000     0.296830000000    -0.187997   
N164     N      0.463680000000     0.796870000000     0.388300000000    -0.188019   
N165     N      0.966750000000     0.796930000000     0.042440000000    -0.1881     
N166     N      0.964090000000     0.888380000000     0.133970000000    -0.188817   
N167     N      0.466320000000     0.542570000000     0.134060000000    -0.188904   
N168     N      0.964170000000     0.634070000000     0.042530000000    -0.188955   
N169     N      0.796540000000     0.888380000000     0.963390000000    -0.188939   
N170     N      0.887970000000     0.796760000000     0.464370000000    -0.188511   
N171     N      0.888010000000     0.634060000000     0.465920000000    -0.188335   
N172     N      0.796590000000     0.542480000000     0.467400000000    -0.189088   
N173     N      0.633700000000     0.888480000000     0.968020000000    -0.188151   
N174     N      0.542290000000     0.796880000000     0.966510000000    -0.188287   
N175     N      0.542430000000     0.634120000000     0.964850000000    -0.188321   
N176     N      0.633810000000     0.542560000000     0.462980000000    -0.188845   
N177     N      0.888120000000     0.965600000000     0.796830000000    -0.188368   
N178     N      0.796600000000     0.965920000000     0.888290000000    -0.18851    
N179     N      0.542370000000     0.465310000000     0.796720000000    -0.1884     
N180     N      0.633890000000     0.965450000000     0.888240000000    -0.188438   
N181     N      0.542310000000     0.465030000000     0.634010000000    -0.188401   
N182     N      0.633780000000     0.465380000000     0.542490000000    -0.188478   
N183     N      0.887970000000     0.965760000000     0.634100000000    -0.188398   
N184     N      0.796500000000     0.465080000000     0.542640000000    -0.188203   
N185     N      0.463550000000     0.542480000000     0.796890000000    -0.18805    
N186     N      0.466180000000     0.633980000000     0.888370000000    -0.188851   
N187     N      0.966770000000     0.888310000000     0.796830000000    -0.188023   
N188     N      0.463680000000     0.796870000000     0.888300000000    -0.188072   
N189     N      0.966750000000     0.796930000000     0.542440000000    -0.188085   
N190     N      0.964090000000     0.888380000000     0.633970000000    -0.18886    
N191     N      0.466320000000     0.542570000000     0.634060000000    -0.188903   
N192     N      0.964170000000     0.634070000000     0.542530000000    -0.188939   
O1       O      0.966310000000     0.032880000000     0.174500000000    -0.364853   
O2       O      0.464960000000     0.002700000000     0.146070000000    -0.354153   
O3       O      0.032670000000     0.965090000000     0.256310000000    -0.360208   
O4       O      0.002480000000     0.464720000000     0.284760000000    -0.351934   
O5       O      0.032680000000     0.963850000000     0.174420000000    -0.363523   
O6       O      0.002490000000     0.466850000000     0.146130000000    -0.352244   
O7       O      0.962080000000     0.032830000000     0.256460000000    -0.354668   
O8       O      0.466020000000     0.002710000000     0.284700000000    -0.35325    
O9       O      0.998500000000     0.043470000000     0.217720000000    -0.340157   
O10      O      0.437540000000     0.050300000000     0.214040000000    -0.513535   
O11      O      0.042100000000     0.999450000000     0.214780000000    -0.51272    
O12      O      0.050790000000     0.438340000000     0.215610000000    -0.325991   
O13      O      0.992510000000     0.992970000000     0.191100000000    -0.469012   
O14      O      0.992430000000     0.992840000000     0.239520000000    -0.61062    
O15      O      0.397780000000     0.465870000000     0.256410000000    -0.360234   
O16      O      0.428010000000     0.966030000000     0.284810000000    -0.351684   
O17      O      0.464170000000     0.398030000000     0.174430000000    -0.364911   
O18      O      0.965300000000     0.428240000000     0.146020000000    -0.353619   
O19      O      0.468200000000     0.397980000000     0.256390000000    -0.354573   
O20      O      0.964490000000     0.428100000000     0.284670000000    -0.352725   
O21      O      0.397660000000     0.466920000000     0.174510000000    -0.363387   
O22      O      0.427820000000     0.964120000000     0.146170000000    -0.351948   
O23      O      0.388280000000     0.431430000000     0.214960000000    -0.51373    
O24      O      0.379610000000     0.992530000000     0.215680000000    -0.32576    
O25      O      0.431870000000     0.387410000000     0.217560000000    -0.340582   
O26      O      0.992850000000     0.380570000000     0.214000000000    -0.512964   
O27      O      0.438000000000     0.438010000000     0.239530000000    -0.611446   
O28      O      0.437850000000     0.437920000000     0.191100000000    -0.469485   
O29      O      0.437150000000     0.993260000000     0.241520000000    -0.474747   
O30      O      0.993020000000     0.437690000000     0.189610000000    -0.624006   
O31      O      0.437340000000     0.993210000000     0.189670000000    -0.623835   
O32      O      0.993280000000     0.437580000000     0.241460000000    -0.474782   
O33      O      0.464120000000     0.174520000000     0.032830000000    -0.364797   
O34      O      0.965530000000     0.146070000000     0.002670000000    -0.354098   
O35      O      0.397680000000     0.256350000000     0.964620000000    -0.360382   
O36      O      0.427870000000     0.284790000000     0.464430000000    -0.351736   
O37      O      0.397670000000     0.174460000000     0.964260000000    -0.36342    
O38      O      0.427870000000     0.146160000000     0.467100000000    -0.352009   
O39      O      0.468280000000     0.256500000000     0.032780000000    -0.354655   
O40      O      0.964260000000     0.284760000000     0.002680000000    -0.353126   
O41      O      0.431890000000     0.217710000000     0.043420000000    -0.340914   
O42      O      0.992860000000     0.214090000000     0.050240000000    -0.512969   
O43      O      0.388300000000     0.215170000000     0.999440000000    -0.512533   
O44      O      0.379590000000     0.215400000000     0.438340000000    -0.326449   
O45      O      0.437880000000     0.191130000000     0.992940000000    -0.469386   
O46      O      0.437950000000     0.239580000000     0.992810000000    -0.611235   
O47      O      0.032630000000     0.256440000000     0.466300000000    -0.360216   
O48      O      0.002400000000     0.284850000000     0.966270000000    -0.35185    
O49      O      0.966160000000     0.174440000000     0.398040000000    -0.364926   
O50      O      0.464970000000     0.146020000000     0.428230000000    -0.353829   
O51      O      0.962200000000     0.256430000000     0.397990000000    -0.354657   
O52      O      0.465980000000     0.284730000000     0.428080000000    -0.352857   
O53      O      0.032740000000     0.174530000000     0.466470000000    -0.363211   
O54      O      0.002560000000     0.146190000000     0.963840000000    -0.352233   
O55      O      0.042080000000     0.215350000000     0.431380000000    -0.51375    
O56      O      0.050780000000     0.215450000000     0.992480000000    -0.325944   
O57      O      0.998490000000     0.217550000000     0.387410000000    -0.34017    
O58      O      0.437510000000     0.214050000000     0.380580000000    -0.513173   
O59      O      0.992390000000     0.239580000000     0.437990000000    -0.61105    
O60      O      0.992510000000     0.191130000000     0.437910000000    -0.469385   
O61      O      0.993220000000     0.241550000000     0.993220000000    -0.474469   
O62      O      0.437340000000     0.189620000000     0.437690000000    -0.624537   
O63      O      0.993060000000     0.189680000000     0.993160000000    -0.623185   
O64      O      0.437100000000     0.241490000000     0.437570000000    -0.474995   
O65      O      0.256150000000     0.032820000000     0.966890000000    -0.362634   
O66      O      0.284570000000     0.002640000000     0.465540000000    -0.353771   
O67      O      0.174200000000     0.965070000000     0.032830000000    -0.36072    
O68      O      0.145790000000     0.464960000000     0.002600000000    -0.352163   
O69      O      0.256090000000     0.963990000000     0.032970000000    -0.361803   
O70      O      0.284430000000     0.466680000000     0.002800000000    -0.351874   
O71      O      0.174250000000     0.032890000000     0.962010000000    -0.361403   
O72      O      0.145950000000     0.002810000000     0.465850000000    -0.353549   
O73      O      0.213110000000     0.042960000000     0.999090000000    -0.337517   
O74      O      0.216800000000     0.050360000000     0.437810000000    -0.516124   
O75      O      0.215740000000     0.999600000000     0.042190000000    -0.510636   
O76      O      0.214900000000     0.438470000000     0.051060000000    -0.326733   
O77      O      0.239500000000     0.992970000000     0.992720000000    -0.460886   
O78      O      0.191050000000     0.992900000000     0.992600000000    -0.608513   
O79      O      0.174300000000     0.465720000000     0.397930000000    -0.360106   
O80      O      0.145850000000     0.966050000000     0.428120000000    -0.351762   
O81      O      0.256100000000     0.398070000000     0.463860000000    -0.364525   
O82      O      0.284560000000     0.428210000000     0.965410000000    -0.353964   
O83      O      0.174140000000     0.398110000000     0.469030000000    -0.35447    
O84      O      0.145880000000     0.428190000000     0.964870000000    -0.352842   
O85      O      0.256190000000     0.467040000000     0.397930000000    -0.363558   
O86      O      0.284480000000     0.964110000000     0.428120000000    -0.351971   
O87      O      0.215870000000     0.431380000000     0.388530000000    -0.513889   
O88      O      0.214970000000     0.992490000000     0.379820000000    -0.325504   
O89      O      0.212510000000     0.387310000000     0.432260000000    -0.340715   
O90      O      0.216830000000     0.380620000000     0.993150000000    -0.513368   
O91      O      0.191070000000     0.438020000000     0.438200000000    -0.611831   
O92      O      0.239500000000     0.437890000000     0.438130000000    -0.469554   
O93      O      0.189160000000     0.993270000000     0.437320000000    -0.474631   
O94      O      0.240940000000     0.437680000000     0.993290000000    -0.624091   
O95      O      0.241010000000     0.993180000000     0.437590000000    -0.623679   
O96      O      0.189090000000     0.437660000000     0.993480000000    -0.474929   
O97      O      0.966310000000     0.032880000000     0.674500000000    -0.364851   
O98      O      0.464960000000     0.002700000000     0.646070000000    -0.354149   
O99      O      0.032670000000     0.965090000000     0.756310000000    -0.360204   
O100     O      0.002480000000     0.464720000000     0.784760000000    -0.351938   
O101     O      0.032680000000     0.963850000000     0.674420000000    -0.363515   
O102     O      0.002490000000     0.466850000000     0.646130000000    -0.352241   
O103     O      0.962080000000     0.032830000000     0.756460000000    -0.354671   
O104     O      0.466020000000     0.002710000000     0.784700000000    -0.353253   
O105     O      0.998500000000     0.043470000000     0.717720000000    -0.340164   
O106     O      0.437540000000     0.050300000000     0.714040000000    -0.513536   
O107     O      0.042100000000     0.999440000000     0.714780000000    -0.512488   
O108     O      0.050790000000     0.438340000000     0.715610000000    -0.325994   
O109     O      0.992510000000     0.992970000000     0.691100000000    -0.469018   
O110     O      0.992430000000     0.992840000000     0.739520000000    -0.610627   
O111     O      0.397780000000     0.465870000000     0.756410000000    -0.360242   
O112     O      0.428010000000     0.966030000000     0.784810000000    -0.351685   
O113     O      0.464170000000     0.398030000000     0.674420000000    -0.365017   
O114     O      0.965300000000     0.428240000000     0.646020000000    -0.353615   
O115     O      0.468200000000     0.397980000000     0.756390000000    -0.35457    
O116     O      0.964490000000     0.428100000000     0.784670000000    -0.352727   
O117     O      0.397660000000     0.466920000000     0.674510000000    -0.363386   
O118     O      0.427820000000     0.964120000000     0.646170000000    -0.351943   
O119     O      0.388280000000     0.431430000000     0.714960000000    -0.513415   
O120     O      0.379610000000     0.992530000000     0.715680000000    -0.325763   
O121     O      0.431870000000     0.387410000000     0.717560000000    -0.340765   
O122     O      0.992850000000     0.380570000000     0.714000000000    -0.512966   
O123     O      0.438000000000     0.438010000000     0.739530000000    -0.61164    
O124     O      0.437850000000     0.437920000000     0.691100000000    -0.469489   
O125     O      0.437150000000     0.993260000000     0.741520000000    -0.474744   
O126     O      0.993020000000     0.437690000000     0.689610000000    -0.624007   
O127     O      0.437340000000     0.993210000000     0.689670000000    -0.623833   
O128     O      0.993280000000     0.437580000000     0.741460000000    -0.474783   
O129     O      0.464130000000     0.174520000000     0.532830000000    -0.364774   
O130     O      0.965530000000     0.146070000000     0.502670000000    -0.353805   
O131     O      0.397680000000     0.256350000000     0.464620000000    -0.360441   
O132     O      0.427870000000     0.284790000000     0.964430000000    -0.351654   
O133     O      0.397670000000     0.174460000000     0.464260000000    -0.363462   
O134     O      0.427870000000     0.146160000000     0.967100000000    -0.351945   
O135     O      0.468290000000     0.256500000000     0.532780000000    -0.354609   
O136     O      0.964270000000     0.284760000000     0.502680000000    -0.352846   
O137     O      0.431890000000     0.217710000000     0.543420000000    -0.340942   
O138     O      0.992860000000     0.214090000000     0.550240000000    -0.513013   
O139     O      0.388300000000     0.215170000000     0.499440000000    -0.513558   
O140     O      0.379590000000     0.215400000000     0.938340000000    -0.326426   
O141     O      0.437880000000     0.191130000000     0.492940000000    -0.469652   
O142     O      0.437950000000     0.239580000000     0.492810000000    -0.61182    
O143     O      0.032630000000     0.256440000000     0.966300000000    -0.360202   
O144     O      0.002400000000     0.284850000000     0.466270000000    -0.351892   
O145     O      0.966160000000     0.174440000000     0.898040000000    -0.36493    
O146     O      0.464970000000     0.146020000000     0.928230000000    -0.353833   
O147     O      0.962200000000     0.256430000000     0.897990000000    -0.354655   
O148     O      0.465980000000     0.284730000000     0.928080000000    -0.35287    
O149     O      0.032740000000     0.174530000000     0.966470000000    -0.363153   
O150     O      0.002560000000     0.146190000000     0.463840000000    -0.352303   
O151     O      0.042080000000     0.215350000000     0.931390000000    -0.513521   
O152     O      0.050780000000     0.215450000000     0.492480000000    -0.326388   
O153     O      0.998490000000     0.217550000000     0.887410000000    -0.340172   
O154     O      0.437510000000     0.214050000000     0.880580000000    -0.513173   
O155     O      0.992390000000     0.239580000000     0.937990000000    -0.610894   
O156     O      0.992510000000     0.191130000000     0.937910000000    -0.469417   
O157     O      0.993230000000     0.241550000000     0.493220000000    -0.474634   
O158     O      0.437340000000     0.189620000000     0.937690000000    -0.624556   
O159     O      0.993060000000     0.189680000000     0.493160000000    -0.623767   
O160     O      0.437100000000     0.241490000000     0.937570000000    -0.475022   
O161     O      0.256150000000     0.032820000000     0.466890000000    -0.36265    
O162     O      0.284570000000     0.002640000000     0.965540000000    -0.353723   
O163     O      0.174200000000     0.965070000000     0.532830000000    -0.360641   
O164     O      0.145790000000     0.464960000000     0.502600000000    -0.351866   
O165     O      0.256090000000     0.963990000000     0.532970000000    -0.36173    
O166     O      0.284430000000     0.466680000000     0.502800000000    -0.351573   
O167     O      0.174250000000     0.032890000000     0.462010000000    -0.361432   
O168     O      0.145950000000     0.002810000000     0.965850000000    -0.353463   
O169     O      0.213110000000     0.042960000000     0.499090000000    -0.337665   
O170     O      0.216800000000     0.050360000000     0.937810000000    -0.516129   
O171     O      0.215740000000     0.999600000000     0.542180000000    -0.510517   
O172     O      0.214900000000     0.438470000000     0.551060000000    -0.32667    
O173     O      0.239500000000     0.992970000000     0.492720000000    -0.461167   
O174     O      0.191050000000     0.992900000000     0.492600000000    -0.609138   
O175     O      0.174300000000     0.465720000000     0.897930000000    -0.360109   
O176     O      0.145850000000     0.966050000000     0.928120000000    -0.351791   
O177     O      0.256100000000     0.398070000000     0.963860000000    -0.364486   
O178     O      0.284560000000     0.428210000000     0.465410000000    -0.354029   
O179     O      0.174140000000     0.398110000000     0.969030000000    -0.35445    
O180     O      0.145880000000     0.428190000000     0.464870000000    -0.352903   
O181     O      0.256190000000     0.467040000000     0.897930000000    -0.363648   
O182     O      0.284480000000     0.964110000000     0.928110000000    -0.351955   
O183     O      0.215870000000     0.431380000000     0.888530000000    -0.513886   
O184     O      0.214970000000     0.992490000000     0.879820000000    -0.325511   
O185     O      0.212510000000     0.387310000000     0.932260000000    -0.340717   
O186     O      0.216830000000     0.380620000000     0.493150000000    -0.513879   
O187     O      0.191070000000     0.438020000000     0.938200000000    -0.61185    
O188     O      0.239500000000     0.437890000000     0.938130000000    -0.469578   
O189     O      0.189160000000     0.993270000000     0.937320000000    -0.474656   
O190     O      0.240940000000     0.437680000000     0.493290000000    -0.624728   
O191     O      0.241010000000     0.993180000000     0.937590000000    -0.62389    
O192     O      0.189090000000     0.437660000000     0.493480000000    -0.475232   
O193     O      0.966310000000     0.532880000000     0.174500000000    -0.364839   
O194     O      0.464960000000     0.502700000000     0.146070000000    -0.353823   
O195     O      0.032670000000     0.465090000000     0.256310000000    -0.360278   
O196     O      0.002480000000     0.964720000000     0.284760000000    -0.351846   
O197     O      0.032680000000     0.463850000000     0.174420000000    -0.363576   
O198     O      0.002490000000     0.966850000000     0.146130000000    -0.352171   
O199     O      0.962080000000     0.532830000000     0.256460000000    -0.354616   
O200     O      0.466020000000     0.502710000000     0.284700000000    -0.352919   
O201     O      0.998500000000     0.543470000000     0.217720000000    -0.340263   
O202     O      0.437540000000     0.550300000000     0.214040000000    -0.513732   
O203     O      0.042100000000     0.499450000000     0.214780000000    -0.513888   
O204     O      0.050780000000     0.938340000000     0.215610000000    -0.326133   
O205     O      0.992510000000     0.492970000000     0.191100000000    -0.469318   
O206     O      0.992430000000     0.492840000000     0.239520000000    -0.611264   
O207     O      0.397780000000     0.965870000000     0.256410000000    -0.360212   
O208     O      0.428010000000     0.466030000000     0.284810000000    -0.351748   
O209     O      0.464170000000     0.898030000000     0.174430000000    -0.364917   
O210     O      0.965300000000     0.928240000000     0.146020000000    -0.353635   
O211     O      0.468200000000     0.897980000000     0.256390000000    -0.354579   
O212     O      0.964490000000     0.928100000000     0.284670000000    -0.352731   
O213     O      0.397660000000     0.966920000000     0.174510000000    -0.363339   
O214     O      0.427820000000     0.464120000000     0.146170000000    -0.352025   
O215     O      0.388280000000     0.931430000000     0.214960000000    -0.513738   
O216     O      0.379610000000     0.492530000000     0.215680000000    -0.326262   
O217     O      0.431870000000     0.887410000000     0.217560000000    -0.340588   
O218     O      0.992850000000     0.880570000000     0.214000000000    -0.512955   
O219     O      0.438000000000     0.938010000000     0.239530000000    -0.611474   
O220     O      0.437850000000     0.937920000000     0.191100000000    -0.469517   
O221     O      0.437150000000     0.493260000000     0.241520000000    -0.47505    
O222     O      0.993020000000     0.937690000000     0.189610000000    -0.624041   
O223     O      0.437340000000     0.493210000000     0.189670000000    -0.624506   
O224     O      0.993280000000     0.937580000000     0.241460000000    -0.474804   
O225     O      0.464120000000     0.674520000000     0.032830000000    -0.364803   
O226     O      0.965530000000     0.646070000000     0.002670000000    -0.354093   
O227     O      0.397680000000     0.756350000000     0.964620000000    -0.360381   
O228     O      0.427870000000     0.784790000000     0.464430000000    -0.351739   
O229     O      0.397670000000     0.674460000000     0.964260000000    -0.363424   
O230     O      0.427870000000     0.646160000000     0.467100000000    -0.352005   
O231     O      0.468280000000     0.756500000000     0.032780000000    -0.35465    
O232     O      0.964260000000     0.784760000000     0.002680000000    -0.353133   
O233     O      0.431890000000     0.717710000000     0.043420000000    -0.340918   
O234     O      0.992860000000     0.714090000000     0.050240000000    -0.51297    
O235     O      0.388300000000     0.715180000000     0.999440000000    -0.512534   
O236     O      0.379590000000     0.715400000000     0.438340000000    -0.326452   
O237     O      0.437880000000     0.691130000000     0.992940000000    -0.469388   
O238     O      0.437950000000     0.739580000000     0.992810000000    -0.611238   
O239     O      0.032630000000     0.756440000000     0.466300000000    -0.360221   
O240     O      0.002400000000     0.784850000000     0.966270000000    -0.351853   
O241     O      0.966160000000     0.674440000000     0.398040000000    -0.364929   
O242     O      0.464970000000     0.646020000000     0.428230000000    -0.353824   
O243     O      0.962200000000     0.756430000000     0.397990000000    -0.354675   
O244     O      0.465980000000     0.784720000000     0.428080000000    -0.352965   
O245     O      0.032740000000     0.674530000000     0.466470000000    -0.363209   
O246     O      0.002560000000     0.646190000000     0.963840000000    -0.352232   
O247     O      0.042080000000     0.715350000000     0.431380000000    -0.51375    
O248     O      0.050780000000     0.715450000000     0.992480000000    -0.325983   
O249     O      0.998490000000     0.717550000000     0.387410000000    -0.340174   
O250     O      0.437510000000     0.714050000000     0.380580000000    -0.513174   
O251     O      0.992390000000     0.739580000000     0.437990000000    -0.611047   
O252     O      0.992510000000     0.691130000000     0.437910000000    -0.469387   
O253     O      0.993220000000     0.741550000000     0.993220000000    -0.474471   
O254     O      0.437340000000     0.689620000000     0.437690000000    -0.624539   
O255     O      0.993060000000     0.689680000000     0.993160000000    -0.62318    
O256     O      0.437100000000     0.741490000000     0.437570000000    -0.474989   
O257     O      0.256150000000     0.532820000000     0.966890000000    -0.362601   
O258     O      0.284570000000     0.502640000000     0.465540000000    -0.353441   
O259     O      0.174200000000     0.465070000000     0.032830000000    -0.360786   
O260     O      0.145790000000     0.964960000000     0.002600000000    -0.352075   
O261     O      0.256090000000     0.463990000000     0.032970000000    -0.361855   
O262     O      0.284430000000     0.966680000000     0.002800000000    -0.3518     
O263     O      0.174250000000     0.532890000000     0.962010000000    -0.361364   
O264     O      0.145950000000     0.502810000000     0.465850000000    -0.353201   
O265     O      0.213110000000     0.542960000000     0.999090000000    -0.337463   
O266     O      0.216800000000     0.550360000000     0.437810000000    -0.516197   
O267     O      0.215740000000     0.499600000000     0.042180000000    -0.511643   
O268     O      0.214900000000     0.938470000000     0.051060000000    -0.326696   
O269     O      0.239500000000     0.492970000000     0.992720000000    -0.461177   
O270     O      0.191050000000     0.492900000000     0.992600000000    -0.609164   
O271     O      0.174300000000     0.965720000000     0.397930000000    -0.360075   
O272     O      0.145850000000     0.466050000000     0.428120000000    -0.351835   
O273     O      0.256100000000     0.898070000000     0.463860000000    -0.364524   
O274     O      0.284560000000     0.928210000000     0.965410000000    -0.353972   
O275     O      0.174140000000     0.898110000000     0.469030000000    -0.35447    
O276     O      0.145880000000     0.928190000000     0.964870000000    -0.352848   
O277     O      0.256190000000     0.967040000000     0.397930000000    -0.363505   
O278     O      0.284480000000     0.464110000000     0.428120000000    -0.352051   
O279     O      0.215870000000     0.931380000000     0.388530000000    -0.513785   
O280     O      0.214970000000     0.492490000000     0.379820000000    -0.325957   
O281     O      0.212510000000     0.887310000000     0.432260000000    -0.340714   
O282     O      0.216830000000     0.880630000000     0.993150000000    -0.513155   
O283     O      0.191070000000     0.938020000000     0.438200000000    -0.611793   
O284     O      0.239500000000     0.937890000000     0.438130000000    -0.46953    
O285     O      0.189160000000     0.493270000000     0.437320000000    -0.474875   
O286     O      0.240940000000     0.937680000000     0.993290000000    -0.624112   
O287     O      0.241010000000     0.493180000000     0.437590000000    -0.624292   
O288     O      0.189090000000     0.937660000000     0.993480000000    -0.474951   
O289     O      0.966310000000     0.532880000000     0.674500000000    -0.364839   
O290     O      0.464960000000     0.502700000000     0.646070000000    -0.353818   
O291     O      0.032670000000     0.465090000000     0.756310000000    -0.36028    
O292     O      0.002480000000     0.964720000000     0.784760000000    -0.35185    
O293     O      0.032680000000     0.463850000000     0.674420000000    -0.363576   
O294     O      0.002490000000     0.966850000000     0.646130000000    -0.352165   
O295     O      0.962080000000     0.532830000000     0.756460000000    -0.354621   
O296     O      0.466020000000     0.502710000000     0.784700000000    -0.352922   
O297     O      0.998500000000     0.543470000000     0.717720000000    -0.340269   
O298     O      0.437540000000     0.550300000000     0.714040000000    -0.513733   
O299     O      0.042100000000     0.499450000000     0.714780000000    -0.513889   
O300     O      0.050780000000     0.938340000000     0.715610000000    -0.326127   
O301     O      0.992510000000     0.492970000000     0.691100000000    -0.469318   
O302     O      0.992430000000     0.492840000000     0.739520000000    -0.611267   
O303     O      0.397780000000     0.965870000000     0.756410000000    -0.360219   
O304     O      0.428010000000     0.466030000000     0.784810000000    -0.351749   
O305     O      0.464170000000     0.898030000000     0.674420000000    -0.365022   
O306     O      0.965300000000     0.928240000000     0.646020000000    -0.353699   
O307     O      0.468200000000     0.897980000000     0.756390000000    -0.35458    
O308     O      0.964490000000     0.928100000000     0.784670000000    -0.352732   
O309     O      0.397660000000     0.966920000000     0.674510000000    -0.363338   
O310     O      0.427820000000     0.464120000000     0.646170000000    -0.352019   
O311     O      0.388280000000     0.931430000000     0.714960000000    -0.513421   
O312     O      0.379610000000     0.492530000000     0.715680000000    -0.326265   
O313     O      0.431870000000     0.887410000000     0.717560000000    -0.340602   
O314     O      0.992850000000     0.880570000000     0.714000000000    -0.512959   
O315     O      0.438000000000     0.938010000000     0.739530000000    -0.611667   
O316     O      0.437850000000     0.937920000000     0.691100000000    -0.469516   
O317     O      0.437150000000     0.493260000000     0.741520000000    -0.475047   
O318     O      0.993020000000     0.937690000000     0.689610000000    -0.624047   
O319     O      0.437340000000     0.493210000000     0.689670000000    -0.624504   
O320     O      0.993280000000     0.937580000000     0.741460000000    -0.474806   
O321     O      0.464130000000     0.674520000000     0.532830000000    -0.36478    
O322     O      0.965530000000     0.646070000000     0.502670000000    -0.3538     
O323     O      0.397680000000     0.756350000000     0.464620000000    -0.360442   
O324     O      0.427870000000     0.784790000000     0.964430000000    -0.351658   
O325     O      0.397670000000     0.674460000000     0.464260000000    -0.363467   
O326     O      0.427870000000     0.646160000000     0.967100000000    -0.35194    
O327     O      0.468290000000     0.756500000000     0.532780000000    -0.354605   
O328     O      0.964270000000     0.784760000000     0.502680000000    -0.352853   
O329     O      0.431890000000     0.717710000000     0.543420000000    -0.340945   
O330     O      0.992860000000     0.714090000000     0.550240000000    -0.513047   
O331     O      0.388300000000     0.715180000000     0.499440000000    -0.513559   
O332     O      0.379590000000     0.715400000000     0.938340000000    -0.326429   
O333     O      0.437880000000     0.691130000000     0.492940000000    -0.469654   
O334     O      0.437950000000     0.739580000000     0.492810000000    -0.611824   
O335     O      0.032630000000     0.756440000000     0.966300000000    -0.360214   
O336     O      0.002400000000     0.784850000000     0.466270000000    -0.351895   
O337     O      0.966160000000     0.674440000000     0.898040000000    -0.364932   
O338     O      0.464970000000     0.646020000000     0.928230000000    -0.353828   
O339     O      0.962200000000     0.756430000000     0.897990000000    -0.354673   
O340     O      0.465980000000     0.784720000000     0.928080000000    -0.352982   
O341     O      0.032740000000     0.674530000000     0.966470000000    -0.36316    
O342     O      0.002560000000     0.646190000000     0.463840000000    -0.352302   
O343     O      0.042080000000     0.715350000000     0.931380000000    -0.513754   
O344     O      0.050780000000     0.715450000000     0.492480000000    -0.326421   
O345     O      0.998490000000     0.717550000000     0.887410000000    -0.340172   
O346     O      0.437510000000     0.714050000000     0.880580000000    -0.513174   
O347     O      0.992390000000     0.739580000000     0.937990000000    -0.610883   
O348     O      0.992510000000     0.691130000000     0.937910000000    -0.469414   
O349     O      0.993230000000     0.741550000000     0.493220000000    -0.474642   
O350     O      0.437340000000     0.689620000000     0.937690000000    -0.624559   
O351     O      0.993060000000     0.689680000000     0.493160000000    -0.623768   
O352     O      0.437100000000     0.741490000000     0.937570000000    -0.475015   
O353     O      0.256150000000     0.532820000000     0.466890000000    -0.362626   
O354     O      0.284570000000     0.502640000000     0.965540000000    -0.353386   
O355     O      0.174200000000     0.465070000000     0.532830000000    -0.36071    
O356     O      0.145790000000     0.964950000000     0.502600000000    -0.351764   
O357     O      0.256090000000     0.463990000000     0.532970000000    -0.361771   
O358     O      0.284430000000     0.966680000000     0.502800000000    -0.351499   
O359     O      0.174250000000     0.532890000000     0.462010000000    -0.361387   
O360     O      0.145950000000     0.502810000000     0.965850000000    -0.353133   
O361     O      0.213110000000     0.542960000000     0.499090000000    -0.337632   
O362     O      0.216800000000     0.550360000000     0.937810000000    -0.516194   
O363     O      0.215740000000     0.499600000000     0.542180000000    -0.511587   
O364     O      0.214900000000     0.938470000000     0.551060000000    -0.326652   
O365     O      0.239500000000     0.492970000000     0.492720000000    -0.46147    
O366     O      0.191050000000     0.492900000000     0.492590000000    -0.60969    
O367     O      0.174300000000     0.965720000000     0.897930000000    -0.360112   
O368     O      0.145850000000     0.466050000000     0.928120000000    -0.351836   
O369     O      0.256100000000     0.898070000000     0.963860000000    -0.364492   
O370     O      0.284560000000     0.928210000000     0.465410000000    -0.354035   
O371     O      0.174140000000     0.898110000000     0.969030000000    -0.354453   
O372     O      0.145880000000     0.928190000000     0.464870000000    -0.352893   
O373     O      0.256190000000     0.967040000000     0.897930000000    -0.363608   
O374     O      0.284480000000     0.464110000000     0.928110000000    -0.352026   
O375     O      0.215870000000     0.931380000000     0.888530000000    -0.513786   
O376     O      0.214970000000     0.492490000000     0.879820000000    -0.326124   
O377     O      0.212510000000     0.887310000000     0.932260000000    -0.34072    
O378     O      0.216830000000     0.880630000000     0.493140000000    -0.513499   
O379     O      0.191070000000     0.938020000000     0.938200000000    -0.611813   
O380     O      0.239500000000     0.937890000000     0.938130000000    -0.469549   
O381     O      0.189160000000     0.493270000000     0.937320000000    -0.474908   
O382     O      0.240940000000     0.937680000000     0.493290000000    -0.624762   
O383     O      0.241010000000     0.493180000000     0.937590000000    -0.624307   
O384     O      0.189090000000     0.937660000000     0.493480000000    -0.475252   
O385     O      0.466310000000     0.032880000000     0.174500000000    -0.364893   
O386     O      0.964960000000     0.002700000000     0.146070000000    -0.354097   
O387     O      0.532670000000     0.965090000000     0.256310000000    -0.360171   
O388     O      0.502480000000     0.464720000000     0.284760000000    -0.351647   
O389     O      0.532680000000     0.963850000000     0.174420000000    -0.363492   
O390     O      0.502490000000     0.466850000000     0.146130000000    -0.351956   
O391     O      0.462080000000     0.032830000000     0.256460000000    -0.35469    
O392     O      0.966020000000     0.002710000000     0.284700000000    -0.353176   
O393     O      0.498500000000     0.043470000000     0.217720000000    -0.340644   
O394     O      0.937540000000     0.050300000000     0.214040000000    -0.513541   
O395     O      0.542100000000     0.999440000000     0.214780000000    -0.512522   
O396     O      0.550780000000     0.438340000000     0.215610000000    -0.326195   
O397     O      0.492510000000     0.992970000000     0.191100000000    -0.469281   
O398     O      0.492430000000     0.992840000000     0.239520000000    -0.611187   
O399     O      0.897780000000     0.465870000000     0.256410000000    -0.360243   
O400     O      0.928010000000     0.966030000000     0.284810000000    -0.35169    
O401     O      0.964170000000     0.398030000000     0.174430000000    -0.364864   
O402     O      0.465300000000     0.428240000000     0.146020000000    -0.353697   
O403     O      0.968200000000     0.397980000000     0.256390000000    -0.354556   
O404     O      0.464490000000     0.428100000000     0.284670000000    -0.35278    
O405     O      0.897660000000     0.466920000000     0.174510000000    -0.363391   
O406     O      0.927820000000     0.964120000000     0.146170000000    -0.351956   
O407     O      0.888280000000     0.431430000000     0.214960000000    -0.513742   
O408     O      0.879610000000     0.992530000000     0.215680000000    -0.325767   
O409     O      0.931870000000     0.387410000000     0.217560000000    -0.340589   
O410     O      0.492850000000     0.380570000000     0.214000000000    -0.513451   
O411     O      0.938000000000     0.438010000000     0.239530000000    -0.611473   
O412     O      0.937860000000     0.437920000000     0.191100000000    -0.469578   
O413     O      0.937150000000     0.993260000000     0.241520000000    -0.47477    
O414     O      0.493020000000     0.437690000000     0.189610000000    -0.62459    
O415     O      0.937340000000     0.993210000000     0.189670000000    -0.62405    
O416     O      0.493280000000     0.437580000000     0.241460000000    -0.475036   
O417     O      0.964130000000     0.174520000000     0.032830000000    -0.364767   
O418     O      0.465530000000     0.146070000000     0.002670000000    -0.354169   
O419     O      0.897680000000     0.256350000000     0.964620000000    -0.360383   
O420     O      0.927870000000     0.284790000000     0.464430000000    -0.351737   
O421     O      0.897670000000     0.174460000000     0.964260000000    -0.363427   
O422     O      0.927870000000     0.146160000000     0.467100000000    -0.352014   
O423     O      0.968280000000     0.256500000000     0.032780000000    -0.354633   
O424     O      0.464260000000     0.284760000000     0.002680000000    -0.353183   
O425     O      0.931890000000     0.217710000000     0.043420000000    -0.340915   
O426     O      0.492860000000     0.214090000000     0.050240000000    -0.513476   
O427     O      0.888300000000     0.215170000000     0.999440000000    -0.51239    
O428     O      0.879590000000     0.215400000000     0.438340000000    -0.326456   
O429     O      0.937880000000     0.191130000000     0.992940000000    -0.469421   
O430     O      0.937950000000     0.239580000000     0.992810000000    -0.611257   
O431     O      0.532630000000     0.256440000000     0.466300000000    -0.360186   
O432     O      0.502400000000     0.284850000000     0.966270000000    -0.351568   
O433     O      0.466160000000     0.174440000000     0.398040000000    -0.364969   
O434     O      0.964970000000     0.146020000000     0.428230000000    -0.353765   
O435     O      0.462200000000     0.256430000000     0.397990000000    -0.354681   
O436     O      0.965980000000     0.284730000000     0.428080000000    -0.35278    
O437     O      0.532740000000     0.174530000000     0.466470000000    -0.363186   
O438     O      0.502560000000     0.146190000000     0.963840000000    -0.35195    
O439     O      0.542080000000     0.215350000000     0.431380000000    -0.513785   
O440     O      0.550780000000     0.215450000000     0.992480000000    -0.325984   
O441     O      0.498490000000     0.217550000000     0.387410000000    -0.340656   
O442     O      0.937510000000     0.214050000000     0.380580000000    -0.513178   
O443     O      0.492390000000     0.239580000000     0.437990000000    -0.611612   
O444     O      0.492510000000     0.191130000000     0.437910000000    -0.46965    
O445     O      0.493220000000     0.241550000000     0.993220000000    -0.474727   
O446     O      0.937340000000     0.189620000000     0.437690000000    -0.624558   
O447     O      0.493060000000     0.189680000000     0.993160000000    -0.62376    
O448     O      0.937100000000     0.241490000000     0.437570000000    -0.475019   
O449     O      0.756150000000     0.032820000000     0.966890000000    -0.362631   
O450     O      0.784570000000     0.002640000000     0.465540000000    -0.353772   
O451     O      0.674200000000     0.965070000000     0.032830000000    -0.360716   
O452     O      0.645790000000     0.464960000000     0.002600000000    -0.352159   
O453     O      0.756090000000     0.963990000000     0.032970000000    -0.36181    
O454     O      0.784430000000     0.466680000000     0.002800000000    -0.351874   
O455     O      0.674250000000     0.032890000000     0.962010000000    -0.361406   
O456     O      0.645950000000     0.002810000000     0.465850000000    -0.353545   
O457     O      0.713110000000     0.042960000000     0.999090000000    -0.337505   
O458     O      0.716800000000     0.050360000000     0.437810000000    -0.516214   
O459     O      0.715740000000     0.999600000000     0.042180000000    -0.510472   
O460     O      0.714900000000     0.438470000000     0.051060000000    -0.326734   
O461     O      0.739500000000     0.992970000000     0.992720000000    -0.460879   
O462     O      0.691050000000     0.992900000000     0.992600000000    -0.608513   
O463     O      0.674300000000     0.465720000000     0.397930000000    -0.360107   
O464     O      0.645850000000     0.966050000000     0.428120000000    -0.351757   
O465     O      0.756100000000     0.398070000000     0.463860000000    -0.364527   
O466     O      0.784560000000     0.428210000000     0.965410000000    -0.353966   
O467     O      0.674140000000     0.398110000000     0.469030000000    -0.354471   
O468     O      0.645880000000     0.428190000000     0.964870000000    -0.352837   
O469     O      0.756190000000     0.467040000000     0.397930000000    -0.363559   
O470     O      0.784480000000     0.964110000000     0.428120000000    -0.351971   
O471     O      0.715870000000     0.431380000000     0.388530000000    -0.51389    
O472     O      0.714970000000     0.992490000000     0.379820000000    -0.325506   
O473     O      0.712510000000     0.387310000000     0.432260000000    -0.340715   
O474     O      0.716830000000     0.380620000000     0.993150000000    -0.513368   
O475     O      0.691070000000     0.438020000000     0.438200000000    -0.611832   
O476     O      0.739500000000     0.437890000000     0.438130000000    -0.469555   
O477     O      0.689160000000     0.993270000000     0.437320000000    -0.474635   
O478     O      0.740940000000     0.437680000000     0.993290000000    -0.624091   
O479     O      0.741010000000     0.993180000000     0.437590000000    -0.623679   
O480     O      0.689090000000     0.437660000000     0.993480000000    -0.474929   
O481     O      0.466310000000     0.032880000000     0.674500000000    -0.364894   
O482     O      0.964960000000     0.002700000000     0.646070000000    -0.354092   
O483     O      0.532670000000     0.965090000000     0.756310000000    -0.360174   
O484     O      0.502480000000     0.464720000000     0.784760000000    -0.351651   
O485     O      0.532680000000     0.963850000000     0.674420000000    -0.363492   
O486     O      0.502490000000     0.466850000000     0.646130000000    -0.351951   
O487     O      0.462080000000     0.032830000000     0.756460000000    -0.354692   
O488     O      0.966020000000     0.002710000000     0.784700000000    -0.353179   
O489     O      0.498500000000     0.043470000000     0.717720000000    -0.340647   
O490     O      0.937540000000     0.050300000000     0.714040000000    -0.513541   
O491     O      0.542100000000     0.999440000000     0.714780000000    -0.512523   
O492     O      0.550780000000     0.438340000000     0.715610000000    -0.326197   
O493     O      0.492510000000     0.992970000000     0.691100000000    -0.469282   
O494     O      0.492430000000     0.992840000000     0.739520000000    -0.611188   
O495     O      0.897780000000     0.465870000000     0.756410000000    -0.360252   
O496     O      0.928010000000     0.966030000000     0.784810000000    -0.35169    
O497     O      0.964170000000     0.398030000000     0.674430000000    -0.364865   
O498     O      0.465300000000     0.428240000000     0.646020000000    -0.353759   
O499     O      0.968200000000     0.397980000000     0.756390000000    -0.354565   
O500     O      0.464490000000     0.428100000000     0.784670000000    -0.352779   
O501     O      0.897660000000     0.466920000000     0.674510000000    -0.363401   
O502     O      0.927820000000     0.964120000000     0.646170000000    -0.351951   
O503     O      0.888280000000     0.431430000000     0.714960000000    -0.513427   
O504     O      0.879610000000     0.992530000000     0.715680000000    -0.325771   
O505     O      0.931870000000     0.387410000000     0.717560000000    -0.340602   
O506     O      0.492850000000     0.380570000000     0.714000000000    -0.513454   
O507     O      0.938000000000     0.438010000000     0.739530000000    -0.61167    
O508     O      0.937860000000     0.437920000000     0.691100000000    -0.469576   
O509     O      0.937150000000     0.993260000000     0.741520000000    -0.474768   
O510     O      0.493020000000     0.437690000000     0.689610000000    -0.624591   
O511     O      0.937340000000     0.993210000000     0.689670000000    -0.624049   
O512     O      0.493280000000     0.437580000000     0.741460000000    -0.475034   
O513     O      0.964130000000     0.174520000000     0.532830000000    -0.364733   
O514     O      0.465530000000     0.146070000000     0.502670000000    -0.353876   
O515     O      0.897680000000     0.256350000000     0.464620000000    -0.360442   
O516     O      0.927870000000     0.284790000000     0.964430000000    -0.351655   
O517     O      0.897670000000     0.174460000000     0.464260000000    -0.363468   
O518     O      0.927870000000     0.146160000000     0.967100000000    -0.351951   
O519     O      0.968290000000     0.256500000000     0.532780000000    -0.354587   
O520     O      0.464270000000     0.284760000000     0.502680000000    -0.352902   
O521     O      0.931890000000     0.217710000000     0.543420000000    -0.340939   
O522     O      0.492860000000     0.214090000000     0.550240000000    -0.513512   
O523     O      0.888300000000     0.215170000000     0.499440000000    -0.513415   
O524     O      0.879590000000     0.215400000000     0.938340000000    -0.326433   
O525     O      0.937880000000     0.191130000000     0.492940000000    -0.469677   
O526     O      0.937950000000     0.239580000000     0.492810000000    -0.611842   
O527     O      0.532630000000     0.256440000000     0.966300000000    -0.360173   
O528     O      0.502400000000     0.284850000000     0.466270000000    -0.351606   
O529     O      0.466160000000     0.174440000000     0.898040000000    -0.364974   
O530     O      0.964970000000     0.146020000000     0.928230000000    -0.353769   
O531     O      0.462200000000     0.256430000000     0.897990000000    -0.35469    
O532     O      0.965980000000     0.284730000000     0.928080000000    -0.352783   
O533     O      0.532740000000     0.174530000000     0.966470000000    -0.363133   
O534     O      0.502560000000     0.146190000000     0.463840000000    -0.352021   
O535     O      0.542080000000     0.215350000000     0.931390000000    -0.513556   
O536     O      0.550780000000     0.215450000000     0.492480000000    -0.326426   
O537     O      0.498490000000     0.217550000000     0.887410000000    -0.340666   
O538     O      0.937510000000     0.214050000000     0.880580000000    -0.513177   
O539     O      0.492390000000     0.239580000000     0.937990000000    -0.611643   
O540     O      0.492510000000     0.191130000000     0.937910000000    -0.469679   
O541     O      0.493230000000     0.241550000000     0.493220000000    -0.474893   
O542     O      0.937340000000     0.189620000000     0.937690000000    -0.624577   
O543     O      0.493060000000     0.189680000000     0.493160000000    -0.624338   
O544     O      0.937100000000     0.241490000000     0.937570000000    -0.475047   
O545     O      0.756150000000     0.032820000000     0.466890000000    -0.362648   
O546     O      0.784570000000     0.002640000000     0.965540000000    -0.353723   
O547     O      0.674200000000     0.965070000000     0.532830000000    -0.360641   
O548     O      0.645790000000     0.464960000000     0.502600000000    -0.351861   
O549     O      0.756090000000     0.963990000000     0.532970000000    -0.361732   
O550     O      0.784430000000     0.466680000000     0.502800000000    -0.351574   
O551     O      0.674250000000     0.032890000000     0.462010000000    -0.361434   
O552     O      0.645950000000     0.002810000000     0.965850000000    -0.35347    
O553     O      0.713110000000     0.042960000000     0.499090000000    -0.337666   
O554     O      0.716800000000     0.050360000000     0.937810000000    -0.516219   
O555     O      0.715740000000     0.999600000000     0.542180000000    -0.510517   
O556     O      0.714900000000     0.438470000000     0.551060000000    -0.326672   
O557     O      0.739500000000     0.992970000000     0.492720000000    -0.461169   
O558     O      0.691050000000     0.992900000000     0.492600000000    -0.60914    
O559     O      0.674300000000     0.465720000000     0.897930000000    -0.360109   
O560     O      0.645850000000     0.966050000000     0.928120000000    -0.351786   
O561     O      0.756100000000     0.398070000000     0.963860000000    -0.364491   
O562     O      0.784560000000     0.428210000000     0.465410000000    -0.35403    
O563     O      0.674140000000     0.398110000000     0.969030000000    -0.35445    
O564     O      0.645880000000     0.428190000000     0.464870000000    -0.352898   
O565     O      0.756190000000     0.467040000000     0.897930000000    -0.363649   
O566     O      0.784480000000     0.964110000000     0.928110000000    -0.351956   
O567     O      0.715870000000     0.431380000000     0.888530000000    -0.513887   
O568     O      0.714970000000     0.992490000000     0.879820000000    -0.325513   
O569     O      0.712510000000     0.387310000000     0.932260000000    -0.340718   
O570     O      0.716830000000     0.380620000000     0.493150000000    -0.513879   
O571     O      0.691070000000     0.438020000000     0.938200000000    -0.611851   
O572     O      0.739500000000     0.437890000000     0.938130000000    -0.469579   
O573     O      0.689160000000     0.993270000000     0.937320000000    -0.47466    
O574     O      0.740940000000     0.437680000000     0.493290000000    -0.624728   
O575     O      0.741010000000     0.993180000000     0.937590000000    -0.623891   
O576     O      0.689090000000     0.437660000000     0.493480000000    -0.475232   
O577     O      0.466310000000     0.532880000000     0.174500000000    -0.364862   
O578     O      0.964960000000     0.502700000000     0.146070000000    -0.353773   
O579     O      0.532670000000     0.465090000000     0.256310000000    -0.360244   
O580     O      0.502480000000     0.964720000000     0.284760000000    -0.351559   
O581     O      0.532680000000     0.463850000000     0.174420000000    -0.36355    
O582     O      0.502490000000     0.966850000000     0.146130000000    -0.35188    
O583     O      0.462080000000     0.532830000000     0.256460000000    -0.354649   
O584     O      0.966020000000     0.502710000000     0.284700000000    -0.352843   
O585     O      0.498500000000     0.543470000000     0.217720000000    -0.340658   
O586     O      0.937540000000     0.550300000000     0.214040000000    -0.513732   
O587     O      0.542100000000     0.499450000000     0.214780000000    -0.513927   
O588     O      0.550780000000     0.938340000000     0.215610000000    -0.326162   
O589     O      0.492510000000     0.492970000000     0.191100000000    -0.469578   
O590     O      0.492430000000     0.492840000000     0.239520000000    -0.611839   
O591     O      0.897780000000     0.965870000000     0.256410000000    -0.360218   
O592     O      0.928010000000     0.466030000000     0.284810000000    -0.351754   
O593     O      0.964170000000     0.898030000000     0.174430000000    -0.364876   
O594     O      0.465300000000     0.928240000000     0.146020000000    -0.353703   
O595     O      0.968200000000     0.897980000000     0.256390000000    -0.354557   
O596     O      0.464490000000     0.928100000000     0.284670000000    -0.352786   
O597     O      0.897660000000     0.966920000000     0.174510000000    -0.363357   
O598     O      0.927820000000     0.464120000000     0.146170000000    -0.352027   
O599     O      0.888280000000     0.931430000000     0.214960000000    -0.513739   
O600     O      0.879610000000     0.492530000000     0.215680000000    -0.326267   
O601     O      0.931870000000     0.887410000000     0.217560000000    -0.34059    
O602     O      0.492850000000     0.880570000000     0.214000000000    -0.513451   
O603     O      0.938000000000     0.938010000000     0.239530000000    -0.611496   
O604     O      0.937850000000     0.937920000000     0.191100000000    -0.469536   
O605     O      0.937150000000     0.493260000000     0.241520000000    -0.475069   
O606     O      0.493020000000     0.937690000000     0.189610000000    -0.624618   
O607     O      0.937330000000     0.493210000000     0.189670000000    -0.62464    
O608     O      0.493280000000     0.937580000000     0.241460000000    -0.475068   
O609     O      0.964130000000     0.674520000000     0.032830000000    -0.36477    
O610     O      0.465530000000     0.646070000000     0.002670000000    -0.354164   
O611     O      0.897680000000     0.756350000000     0.964620000000    -0.360381   
O612     O      0.927870000000     0.784790000000     0.464430000000    -0.35174    
O613     O      0.897670000000     0.674460000000     0.964260000000    -0.363431   
O614     O      0.927870000000     0.646160000000     0.467100000000    -0.352009   
O615     O      0.968280000000     0.756500000000     0.032780000000    -0.354634   
O616     O      0.464260000000     0.784760000000     0.002680000000    -0.353191   
O617     O      0.931890000000     0.717710000000     0.043420000000    -0.340919   
O618     O      0.492860000000     0.714090000000     0.050240000000    -0.513509   
O619     O      0.888300000000     0.715180000000     0.999440000000    -0.512391   
O620     O      0.879590000000     0.715400000000     0.438340000000    -0.326459   
O621     O      0.937880000000     0.691130000000     0.992940000000    -0.469422   
O622     O      0.937950000000     0.739580000000     0.992810000000    -0.61126    
O623     O      0.532630000000     0.756440000000     0.466300000000    -0.360191   
O624     O      0.502400000000     0.784850000000     0.966270000000    -0.351571   
O625     O      0.466160000000     0.674440000000     0.398040000000    -0.36497    
O626     O      0.964970000000     0.646020000000     0.428230000000    -0.35376    
O627     O      0.462200000000     0.756430000000     0.397990000000    -0.354699   
O628     O      0.965980000000     0.784720000000     0.428080000000    -0.352888   
O629     O      0.532740000000     0.674530000000     0.466470000000    -0.363187   
O630     O      0.502560000000     0.646190000000     0.963840000000    -0.351949   
O631     O      0.542080000000     0.715350000000     0.431380000000    -0.513785   
O632     O      0.550780000000     0.715450000000     0.992480000000    -0.326016   
O633     O      0.498490000000     0.717550000000     0.387410000000    -0.34066    
O634     O      0.937510000000     0.714050000000     0.380580000000    -0.513179   
O635     O      0.492390000000     0.739580000000     0.437990000000    -0.611609   
O636     O      0.492510000000     0.691130000000     0.437910000000    -0.469652   
O637     O      0.493220000000     0.741550000000     0.993220000000    -0.474734   
O638     O      0.937340000000     0.689620000000     0.437690000000    -0.62456    
O639     O      0.493060000000     0.689680000000     0.993160000000    -0.623761   
O640     O      0.937100000000     0.741490000000     0.437570000000    -0.475013   
O641     O      0.756150000000     0.532820000000     0.966890000000    -0.362599   
O642     O      0.784570000000     0.502640000000     0.465540000000    -0.353442   
O643     O      0.674200000000     0.465070000000     0.032830000000    -0.360786   
O644     O      0.645790000000     0.964950000000     0.002600000000    -0.352062   
O645     O      0.756090000000     0.463990000000     0.032970000000    -0.361855   
O646     O      0.784430000000     0.966680000000     0.002800000000    -0.351801   
O647     O      0.674250000000     0.532890000000     0.962010000000    -0.361367   
O648     O      0.645950000000     0.502810000000     0.465850000000    -0.353197   
O649     O      0.713110000000     0.542960000000     0.999090000000    -0.337464   
O650     O      0.716800000000     0.550360000000     0.437810000000    -0.516287   
O651     O      0.715740000000     0.499600000000     0.042180000000    -0.511644   
O652     O      0.714900000000     0.938470000000     0.051060000000    -0.326706   
O653     O      0.739500000000     0.492970000000     0.992720000000    -0.461179   
O654     O      0.691050000000     0.492900000000     0.992600000000    -0.609165   
O655     O      0.674300000000     0.965720000000     0.397930000000    -0.360076   
O656     O      0.645850000000     0.466050000000     0.428120000000    -0.351831   
O657     O      0.756100000000     0.898070000000     0.463860000000    -0.364526   
O658     O      0.784560000000     0.928210000000     0.965410000000    -0.353974   
O659     O      0.674140000000     0.898110000000     0.469030000000    -0.35447    
O660     O      0.645880000000     0.928190000000     0.964870000000    -0.352834   
O661     O      0.756190000000     0.967040000000     0.397930000000    -0.363507   
O662     O      0.784480000000     0.464110000000     0.428120000000    -0.352051   
O663     O      0.715870000000     0.931380000000     0.388530000000    -0.513786   
O664     O      0.714970000000     0.492490000000     0.379820000000    -0.325959   
O665     O      0.712510000000     0.887310000000     0.432260000000    -0.340714   
O666     O      0.716830000000     0.880630000000     0.993150000000    -0.513155   
O667     O      0.691070000000     0.938020000000     0.438200000000    -0.611794   
O668     O      0.739500000000     0.937890000000     0.438130000000    -0.469531   
O669     O      0.689160000000     0.493270000000     0.437320000000    -0.474878   
O670     O      0.740940000000     0.937680000000     0.993290000000    -0.624116   
O671     O      0.741010000000     0.493180000000     0.437590000000    -0.624293   
O672     O      0.689090000000     0.937660000000     0.993480000000    -0.474947   
O673     O      0.466310000000     0.532880000000     0.674500000000    -0.364862   
O674     O      0.964960000000     0.502700000000     0.646070000000    -0.353774   
O675     O      0.532670000000     0.465090000000     0.756310000000    -0.360247   
O676     O      0.502480000000     0.964720000000     0.784760000000    -0.351563   
O677     O      0.532680000000     0.463850000000     0.674420000000    -0.36355    
O678     O      0.502490000000     0.966850000000     0.646130000000    -0.351875   
O679     O      0.462080000000     0.532830000000     0.756460000000    -0.354653   
O680     O      0.966020000000     0.502710000000     0.784700000000    -0.352847   
O681     O      0.498500000000     0.543470000000     0.717720000000    -0.340661   
O682     O      0.937540000000     0.550300000000     0.714040000000    -0.513734   
O683     O      0.542100000000     0.499450000000     0.714780000000    -0.513928   
O684     O      0.550780000000     0.938340000000     0.715610000000    -0.326164   
O685     O      0.492510000000     0.492970000000     0.691100000000    -0.469578   
O686     O      0.492430000000     0.492840000000     0.739520000000    -0.61184    
O687     O      0.897780000000     0.965870000000     0.756410000000    -0.360226   
O688     O      0.928010000000     0.466030000000     0.784810000000    -0.351755   
O689     O      0.964170000000     0.898030000000     0.674420000000    -0.364982   
O690     O      0.465300000000     0.928240000000     0.646020000000    -0.353767   
O691     O      0.968200000000     0.897980000000     0.756390000000    -0.354562   
O692     O      0.464490000000     0.928100000000     0.784670000000    -0.352786   
O693     O      0.897660000000     0.966920000000     0.674510000000    -0.363355   
O694     O      0.927820000000     0.464120000000     0.646170000000    -0.35203    
O695     O      0.888280000000     0.931430000000     0.714960000000    -0.513422   
O696     O      0.879610000000     0.492530000000     0.715680000000    -0.326272   
O697     O      0.931870000000     0.887410000000     0.717560000000    -0.340604   
O698     O      0.492850000000     0.880570000000     0.714000000000    -0.513455   
O699     O      0.938000000000     0.938010000000     0.739530000000    -0.611689   
O700     O      0.937850000000     0.937920000000     0.691100000000    -0.469535   
O701     O      0.937150000000     0.493260000000     0.741520000000    -0.475065   
O702     O      0.493020000000     0.937690000000     0.689610000000    -0.624618   
O703     O      0.937330000000     0.493210000000     0.689670000000    -0.624832   
O704     O      0.493280000000     0.937580000000     0.741460000000    -0.475064   
O705     O      0.964130000000     0.674520000000     0.532830000000    -0.364742   
O706     O      0.465530000000     0.646070000000     0.502670000000    -0.353871   
O707     O      0.897680000000     0.756350000000     0.464620000000    -0.360442   
O708     O      0.927870000000     0.784790000000     0.964430000000    -0.351656   
O709     O      0.897670000000     0.674460000000     0.464260000000    -0.363473   
O710     O      0.927870000000     0.646160000000     0.967100000000    -0.351947   
O711     O      0.968290000000     0.756500000000     0.532780000000    -0.354583   
O712     O      0.464270000000     0.784760000000     0.502680000000    -0.352909   
O713     O      0.931890000000     0.717710000000     0.543420000000    -0.340944   
O714     O      0.492860000000     0.714090000000     0.550240000000    -0.513545   
O715     O      0.888300000000     0.715180000000     0.499440000000    -0.513416   
O716     O      0.879590000000     0.715400000000     0.938340000000    -0.326437   
O717     O      0.937880000000     0.691130000000     0.492940000000    -0.469679   
O718     O      0.937950000000     0.739580000000     0.492810000000    -0.611845   
O719     O      0.532630000000     0.756440000000     0.966300000000    -0.360176   
O720     O      0.502400000000     0.784850000000     0.466270000000    -0.351609   
O721     O      0.466160000000     0.674440000000     0.898040000000    -0.364975   
O722     O      0.964970000000     0.646020000000     0.928230000000    -0.353764   
O723     O      0.462200000000     0.756430000000     0.897990000000    -0.354709   
O724     O      0.965980000000     0.784720000000     0.928080000000    -0.352893   
O725     O      0.532740000000     0.674530000000     0.966470000000    -0.363132   
O726     O      0.502560000000     0.646190000000     0.463840000000    -0.35202    
O727     O      0.542080000000     0.715350000000     0.931390000000    -0.513556   
O728     O      0.550780000000     0.715450000000     0.492480000000    -0.326458   
O729     O      0.498490000000     0.717550000000     0.887410000000    -0.34067    
O730     O      0.937510000000     0.714050000000     0.880580000000    -0.513178   
O731     O      0.492390000000     0.739580000000     0.937990000000    -0.611639   
O732     O      0.492510000000     0.691130000000     0.937910000000    -0.469681   
O733     O      0.493230000000     0.741550000000     0.493220000000    -0.4749     
O734     O      0.937340000000     0.689620000000     0.937690000000    -0.624579   
O735     O      0.493060000000     0.689680000000     0.493160000000    -0.624339   
O736     O      0.937100000000     0.741490000000     0.937570000000    -0.475041   
O737     O      0.756150000000     0.532820000000     0.466890000000    -0.362624   
O738     O      0.784570000000     0.502640000000     0.965540000000    -0.353386   
O739     O      0.674200000000     0.465070000000     0.532830000000    -0.36071    
O740     O      0.645790000000     0.964950000000     0.502600000000    -0.35176    
O741     O      0.756090000000     0.463990000000     0.532970000000    -0.361772   
O742     O      0.784430000000     0.966680000000     0.502800000000    -0.3515     
O743     O      0.674250000000     0.532890000000     0.462010000000    -0.36139    
O744     O      0.645950000000     0.502810000000     0.965850000000    -0.353129   
O745     O      0.713110000000     0.542960000000     0.499090000000    -0.337633   
O746     O      0.716800000000     0.550360000000     0.937810000000    -0.516283   
O747     O      0.715740000000     0.499600000000     0.542180000000    -0.511588   
O748     O      0.714900000000     0.938470000000     0.551060000000    -0.326654   
O749     O      0.739500000000     0.492970000000     0.492720000000    -0.461472   
O750     O      0.691050000000     0.492900000000     0.492590000000    -0.609691   
O751     O      0.674300000000     0.965720000000     0.897930000000    -0.360112   
O752     O      0.645850000000     0.466050000000     0.928120000000    -0.351832   
O753     O      0.756100000000     0.898070000000     0.963860000000    -0.364497   
O754     O      0.784560000000     0.928210000000     0.465410000000    -0.354036   
O755     O      0.674140000000     0.898110000000     0.969030000000    -0.354452   
O756     O      0.645880000000     0.928190000000     0.464870000000    -0.352888   
O757     O      0.756190000000     0.967040000000     0.897930000000    -0.36361    
O758     O      0.784480000000     0.464110000000     0.928110000000    -0.352027   
O759     O      0.715870000000     0.931380000000     0.888530000000    -0.513787   
O760     O      0.714970000000     0.492490000000     0.879820000000    -0.326126   
O761     O      0.712510000000     0.887310000000     0.932260000000    -0.34072    
O762     O      0.716830000000     0.880630000000     0.493140000000    -0.513499   
O763     O      0.691070000000     0.938020000000     0.938200000000    -0.611813   
O764     O      0.739500000000     0.937890000000     0.938130000000    -0.46955    
O765     O      0.689160000000     0.493270000000     0.937320000000    -0.474911   
O766     O      0.740940000000     0.937680000000     0.493290000000    -0.624762   
O767     O      0.741010000000     0.493180000000     0.937590000000    -0.624307   
O768     O      0.689090000000     0.937660000000     0.493480000000    -0.475252   
Zr1      Zr     0.464190000000     0.015640000000     0.215490000000     1.2945     
Zr2      Zr     0.015380000000     0.464770000000     0.215360000000     1.29629    
Zr3      Zr     0.415010000000     0.966100000000     0.215430000000     1.29702    
Zr4      Zr     0.966200000000     0.415220000000     0.215440000000     1.29569    
Zr5      Zr     0.465160000000     0.465460000000     0.169670000000     1.26947    
Zr6      Zr     0.965230000000     0.965410000000     0.261140000000     1.26713    
Zr7      Zr     0.966200000000     0.215520000000     0.015600000000     1.29466    
Zr8      Zr     0.415000000000     0.215400000000     0.464760000000     1.29708    
Zr9      Zr     0.015370000000     0.215460000000     0.966060000000     1.29603    
Zr10     Zr     0.464170000000     0.215460000000     0.415220000000     1.29555    
Zr11     Zr     0.965210000000     0.169680000000     0.465440000000     1.26966    
Zr12     Zr     0.465150000000     0.261190000000     0.965380000000     1.2664     
Zr13     Zr     0.215170000000     0.015650000000     0.464390000000     1.29312    
Zr14     Zr     0.215180000000     0.464830000000     0.015600000000     1.29922    
Zr15     Zr     0.215250000000     0.966080000000     0.415230000000     1.29696    
Zr16     Zr     0.215100000000     0.415240000000     0.966460000000     1.29543    
Zr17     Zr     0.260930000000     0.465420000000     0.465440000000     1.26985    
Zr18     Zr     0.169460000000     0.965480000000     0.965380000000     1.26719    
Zr19     Zr     0.464190000000     0.015640000000     0.715490000000     1.29449    
Zr20     Zr     0.015380000000     0.464770000000     0.715360000000     1.29629    
Zr21     Zr     0.415010000000     0.966100000000     0.715430000000     1.29698    
Zr22     Zr     0.966200000000     0.415220000000     0.715440000000     1.2957     
Zr23     Zr     0.465160000000     0.465460000000     0.669670000000     1.26948    
Zr24     Zr     0.965230000000     0.965410000000     0.761140000000     1.26716    
Zr25     Zr     0.966200000000     0.215520000000     0.515600000000     1.29551    
Zr26     Zr     0.415000000000     0.215400000000     0.964760000000     1.29704    
Zr27     Zr     0.015370000000     0.215460000000     0.466060000000     1.29599    
Zr28     Zr     0.464170000000     0.215460000000     0.915220000000     1.29553    
Zr29     Zr     0.965210000000     0.169680000000     0.965440000000     1.26989    
Zr30     Zr     0.465150000000     0.261190000000     0.465380000000     1.26609    
Zr31     Zr     0.215170000000     0.015650000000     0.964390000000     1.29315    
Zr32     Zr     0.215180000000     0.464830000000     0.515590000000     1.30002    
Zr33     Zr     0.215250000000     0.966080000000     0.915230000000     1.29697    
Zr34     Zr     0.215100000000     0.415240000000     0.466460000000     1.2954     
Zr35     Zr     0.260930000000     0.465420000000     0.965440000000     1.27004    
Zr36     Zr     0.169460000000     0.965480000000     0.465380000000     1.26692    
Zr37     Zr     0.464190000000     0.515640000000     0.215490000000     1.2956     
Zr38     Zr     0.015380000000     0.964770000000     0.215360000000     1.29633    
Zr39     Zr     0.415010000000     0.466100000000     0.215430000000     1.29697    
Zr40     Zr     0.966200000000     0.915220000000     0.215440000000     1.29559    
Zr41     Zr     0.465160000000     0.965460000000     0.169670000000     1.26973    
Zr42     Zr     0.965230000000     0.465410000000     0.261140000000     1.26687    
Zr43     Zr     0.966200000000     0.715520000000     0.015600000000     1.29465    
Zr44     Zr     0.415000000000     0.715400000000     0.464760000000     1.29707    
Zr45     Zr     0.015370000000     0.715460000000     0.966060000000     1.29595    
Zr46     Zr     0.464170000000     0.715460000000     0.415220000000     1.29555    
Zr47     Zr     0.965210000000     0.669680000000     0.465440000000     1.26966    
Zr48     Zr     0.465150000000     0.761190000000     0.965380000000     1.26646    
Zr49     Zr     0.215170000000     0.515650000000     0.464390000000     1.29428    
Zr50     Zr     0.215180000000     0.964830000000     0.015600000000     1.29913    
Zr51     Zr     0.215250000000     0.466070000000     0.415230000000     1.29696    
Zr52     Zr     0.215100000000     0.915240000000     0.966460000000     1.29548    
Zr53     Zr     0.260930000000     0.965420000000     0.465440000000     1.27011    
Zr54     Zr     0.169460000000     0.465480000000     0.965380000000     1.26692    
Zr55     Zr     0.464190000000     0.515640000000     0.715490000000     1.2956     
Zr56     Zr     0.015380000000     0.964770000000     0.715360000000     1.29639    
Zr57     Zr     0.415010000000     0.466100000000     0.715430000000     1.29694    
Zr58     Zr     0.966200000000     0.915220000000     0.715440000000     1.29554    
Zr59     Zr     0.465160000000     0.965460000000     0.669670000000     1.26974    
Zr60     Zr     0.965230000000     0.465410000000     0.761140000000     1.26689    
Zr61     Zr     0.966200000000     0.715520000000     0.515600000000     1.29551    
Zr62     Zr     0.415000000000     0.715400000000     0.964760000000     1.29703    
Zr63     Zr     0.015370000000     0.715460000000     0.466060000000     1.29598    
Zr64     Zr     0.464170000000     0.715460000000     0.915220000000     1.29554    
Zr65     Zr     0.965210000000     0.669680000000     0.965440000000     1.26989    
Zr66     Zr     0.465150000000     0.761190000000     0.465380000000     1.26614    
Zr67     Zr     0.215170000000     0.515650000000     0.964390000000     1.29421    
Zr68     Zr     0.215180000000     0.964830000000     0.515590000000     1.30005    
Zr69     Zr     0.215250000000     0.466070000000     0.915230000000     1.29697    
Zr70     Zr     0.215100000000     0.915240000000     0.466460000000     1.2955     
Zr71     Zr     0.260930000000     0.965420000000     0.965440000000     1.27031    
Zr72     Zr     0.169460000000     0.465480000000     0.465380000000     1.26674    
Zr73     Zr     0.964190000000     0.015640000000     0.215490000000     1.29454    
Zr74     Zr     0.515380000000     0.464770000000     0.215360000000     1.2973     
Zr75     Zr     0.915010000000     0.966100000000     0.215430000000     1.29701    
Zr76     Zr     0.466200000000     0.415220000000     0.215440000000     1.29559    
Zr77     Zr     0.965160000000     0.465460000000     0.169670000000     1.2697     
Zr78     Zr     0.465230000000     0.965410000000     0.261140000000     1.26691    
Zr79     Zr     0.466200000000     0.215520000000     0.015600000000     1.29464    
Zr80     Zr     0.915000000000     0.215400000000     0.464760000000     1.29705    
Zr81     Zr     0.515370000000     0.215460000000     0.966060000000     1.29698    
Zr82     Zr     0.964170000000     0.215460000000     0.415220000000     1.29556    
Zr83     Zr     0.465210000000     0.169680000000     0.465440000000     1.26944    
Zr84     Zr     0.965150000000     0.261190000000     0.965380000000     1.26662    
Zr85     Zr     0.715170000000     0.015650000000     0.464390000000     1.29312    
Zr86     Zr     0.715180000000     0.464830000000     0.015600000000     1.29921    
Zr87     Zr     0.715250000000     0.966080000000     0.415230000000     1.29695    
Zr88     Zr     0.715100000000     0.415240000000     0.966460000000     1.29542    
Zr89     Zr     0.760930000000     0.465420000000     0.465440000000     1.26984    
Zr90     Zr     0.669460000000     0.965480000000     0.965380000000     1.26718    
Zr91     Zr     0.964190000000     0.015640000000     0.715490000000     1.29453    
Zr92     Zr     0.515380000000     0.464770000000     0.715360000000     1.29729    
Zr93     Zr     0.915010000000     0.966100000000     0.715430000000     1.29698    
Zr94     Zr     0.466200000000     0.415220000000     0.715440000000     1.29556    
Zr95     Zr     0.965160000000     0.465460000000     0.669670000000     1.26971    
Zr96     Zr     0.465230000000     0.965410000000     0.761140000000     1.26693    
Zr97     Zr     0.466200000000     0.215520000000     0.515600000000     1.2955     
Zr98     Zr     0.915000000000     0.215400000000     0.964760000000     1.29701    
Zr99     Zr     0.515370000000     0.215460000000     0.466060000000     1.29691    
Zr100    Zr     0.964170000000     0.215460000000     0.915220000000     1.29553    
Zr101    Zr     0.465210000000     0.169680000000     0.965440000000     1.26967    
Zr102    Zr     0.965150000000     0.261190000000     0.465380000000     1.26632    
Zr103    Zr     0.715170000000     0.015650000000     0.964390000000     1.29316    
Zr104    Zr     0.715180000000     0.464830000000     0.515590000000     1.30002    
Zr105    Zr     0.715250000000     0.966080000000     0.915230000000     1.29697    
Zr106    Zr     0.715100000000     0.415240000000     0.466460000000     1.29539    
Zr107    Zr     0.760930000000     0.465420000000     0.965440000000     1.27003    
Zr108    Zr     0.669460000000     0.965480000000     0.465380000000     1.26692    
Zr109    Zr     0.964190000000     0.515640000000     0.215490000000     1.29553    
Zr110    Zr     0.515380000000     0.964770000000     0.215360000000     1.29732    
Zr111    Zr     0.915010000000     0.466100000000     0.215430000000     1.297      
Zr112    Zr     0.466200000000     0.915220000000     0.215440000000     1.29557    
Zr113    Zr     0.965160000000     0.965460000000     0.169670000000     1.26997    
Zr114    Zr     0.465230000000     0.465410000000     0.261140000000     1.26664    
Zr115    Zr     0.466200000000     0.715520000000     0.015600000000     1.29463    
Zr116    Zr     0.915000000000     0.715400000000     0.464760000000     1.29704    
Zr117    Zr     0.515370000000     0.715460000000     0.966060000000     1.29697    
Zr118    Zr     0.964170000000     0.715460000000     0.415220000000     1.29556    
Zr119    Zr     0.465210000000     0.669680000000     0.465440000000     1.26944    
Zr120    Zr     0.965150000000     0.761190000000     0.965380000000     1.26667    
Zr121    Zr     0.715170000000     0.515650000000     0.464390000000     1.29429    
Zr122    Zr     0.715180000000     0.964830000000     0.015600000000     1.29917    
Zr123    Zr     0.715250000000     0.466070000000     0.415230000000     1.29696    
Zr124    Zr     0.715100000000     0.915240000000     0.966460000000     1.29547    
Zr125    Zr     0.760930000000     0.965420000000     0.465440000000     1.2701     
Zr126    Zr     0.669460000000     0.465480000000     0.965380000000     1.26692    
Zr127    Zr     0.964190000000     0.515640000000     0.715490000000     1.29555    
Zr128    Zr     0.515380000000     0.964770000000     0.715360000000     1.29731    
Zr129    Zr     0.915010000000     0.466100000000     0.715430000000     1.29698    
Zr130    Zr     0.466200000000     0.915220000000     0.715440000000     1.29553    
Zr131    Zr     0.965160000000     0.965460000000     0.669670000000     1.26998    
Zr132    Zr     0.465230000000     0.465410000000     0.761140000000     1.26667    
Zr133    Zr     0.466200000000     0.715520000000     0.515600000000     1.29549    
Zr134    Zr     0.915000000000     0.715400000000     0.964760000000     1.29701    
Zr135    Zr     0.515370000000     0.715460000000     0.466060000000     1.2969     
Zr136    Zr     0.964170000000     0.715460000000     0.915220000000     1.29553    
Zr137    Zr     0.465210000000     0.669680000000     0.965440000000     1.26967    
Zr138    Zr     0.965150000000     0.761190000000     0.465380000000     1.26637    
Zr139    Zr     0.715170000000     0.515650000000     0.964390000000     1.29421    
Zr140    Zr     0.715180000000     0.964830000000     0.515590000000     1.30005    
Zr141    Zr     0.715250000000     0.466070000000     0.915230000000     1.29696    
Zr142    Zr     0.715100000000     0.915240000000     0.466460000000     1.29549    
Zr143    Zr     0.760930000000     0.965420000000     0.965440000000     1.27031    
Zr144    Zr     0.669460000000     0.465480000000     0.465380000000     1.26674    


