data_structure

_audit_creation_method RASPA-1.0
_audit_creation_date 2023-6-4
_audit_author_name 'Poobodin Mano'

_cell_length_a    26.1645
_cell_length_b    28.5286
_cell_length_c    29.0908
_cell_angle_alpha 82.7387
_cell_angle_beta  96.3409
_cell_angle_gamma 119.438
_cell_volume      18729.8

_symmetry_cell_setting          triclinic
_symmetry_space_group_name_Hall 'P 1'
_symmetry_space_group_name_H-M  'P 1'
_symmetry_Int_Tables_number     1

_symmetry_equiv_pos_as_xyz 'x,y,z'

loop_
_atom_site_label
_atom_site_type_symbol
_atom_site_fract_x
_atom_site_fract_y
_atom_site_fract_z
_atom_site_charge
C1       C      0.150960000000     0.125580000000     0.010740000000     0.397481   
C2       C      0.924880000000     0.947450000000     0.817760000000     0.390051   
C3       C      0.986960000000     0.140380000000     0.972080000000     0.393947   
C4       C      0.077110000000     0.908440000000     0.898220000000     0.393629   
C5       C      0.926140000000     0.781380000000     0.993250000000     0.392031   
C6       C      0.873080000000     0.025020000000     0.069360000000     0.395127   
C7       C      0.797560000000     0.823900000000     0.938920000000     0.372576   
C8       C      0.019220000000     0.985180000000     0.143520000000     0.39105    
C9       C      0.074180000000     0.879560000000     0.437180000000     0.39524    
C10      C      0.814290000000     0.965640000000     0.425930000000     0.378296   
C11      C      0.052870000000     0.989790000000     0.326420000000     0.389845   
C12      C      0.824110000000     0.850650000000     0.530380000000     0.374482   
C13      C      0.946110000000     0.964890000000     0.631730000000     0.391012   
C14      C      0.190070000000     0.149730000000     0.416970000000     0.375934   
C15      C      0.939140000000     0.114940000000     0.508060000000     0.402019   
C16      C      0.208000000000     0.039850000000     0.529710000000     0.38268    
C17      C      0.034120000000     0.332090000000     0.984100000000     0.394136   
C18      C      0.804620000000     0.449300000000     0.023470000000     0.381887   
C19      C      0.855600000000     0.300480000000     0.901660000000     0.390146   
C20      C      0.969440000000     0.461390000000     0.140060000000     0.391768   
C21      C      0.090300000000     0.642300000000     0.035150000000     0.379816   
C22      C      0.975360000000     0.473900000000     0.809140000000     0.395769   
C23      C      0.948370000000     0.622760000000     0.967200000000     0.394866   
C24      C      0.141330000000     0.489260000000     0.913970000000     0.375686   
C25      C      0.976660000000     0.313750000000     0.501210000000     0.387274   
C26      C      0.855450000000     0.527750000000     0.509500000000     0.382687   
C27      C      0.856290000000     0.332580000000     0.415550000000     0.399035   
C28      C      0.015510000000     0.519150000000     0.633070000000     0.395851   
C29      C      0.156010000000     0.656630000000     0.539160000000     0.387904   
C30      C      0.030200000000     0.486510000000     0.315010000000     0.39701    
C31      C      0.032750000000     0.678990000000     0.444580000000     0.38315    
C32      C      0.151680000000     0.466640000000     0.434400000000     0.376128   
C33      C      0.286900000000     0.946990000000     0.929420000000     0.383071   
C34      C      0.521550000000     0.848240000000     0.915900000000     0.388996   
C35      C      0.286220000000     0.829700000000     0.019370000000     0.380939   
C36      C      0.541160000000     0.008290000000     0.822370000000     0.383769   
C37      C      0.665110000000     0.117140000000     0.926640000000     0.378641   
C38      C      0.423190000000     0.942110000000     0.136700000000     0.389596   
C39      C      0.667770000000     0.986770000000     0.030830000000     0.376749   
C40      C      0.441590000000     0.092990000000     0.043840000000     0.381322   
C41      C      0.556340000000     0.182780000000     0.457440000000     0.392771   
C42      C      0.335810000000     0.842770000000     0.467150000000     0.386304   
C43      C      0.420680000000     0.061210000000     0.563820000000     0.390888   
C44      C      0.445500000000     0.960860000000     0.322880000000     0.386242   
C45      C      0.607320000000     0.931240000000     0.392820000000     0.389155   
C46      C      0.585890000000     0.037480000000     0.640180000000     0.384268   
C47      C      0.507990000000     0.826360000000     0.498920000000     0.392874   
C48      C      0.694070000000     0.151540000000     0.502290000000     0.370967   
C49      C      0.448120000000     0.291410000000     0.022990000000     0.383841   
C50      C      0.324620000000     0.509050000000     0.022590000000     0.389987   
C51      C      0.302000000000     0.299860000000     0.935370000000     0.397583   
C52      C      0.491400000000     0.509810000000     0.137580000000     0.396653   
C53      C      0.621240000000     0.635850000000     0.022590000000     0.380261   
C54      C      0.443680000000     0.431620000000     0.821150000000     0.393049   
C55      C      0.480570000000     0.647250000000     0.940330000000     0.380505   
C56      C      0.595980000000     0.429670000000     0.929500000000     0.368837   
C57      C      0.524660000000     0.339810000000     0.478130000000     0.402816   
C58      C      0.331720000000     0.474100000000     0.537030000000     0.388953   
C59      C      0.378710000000     0.336330000000     0.396280000000     0.386526   
C60      C      0.498470000000     0.478320000000     0.647350000000     0.3918     
C61      C      0.621840000000     0.666410000000     0.545860000000     0.378326   
C62      C      0.530200000000     0.529130000000     0.318380000000     0.399714   
C63      C      0.448000000000     0.632480000000     0.485860000000     0.396184   
C64      C      0.667340000000     0.517750000000     0.416280000000     0.377885   
C65      C      0.459050000000     0.393810000000     0.754910000000    -0.0118218  
C66      C      0.414420000000     0.454040000000     0.741710000000    -0.00651578 
C67      C      0.510290000000     0.434930000000     0.725080000000    -0.0137837  
C68      C      0.467490000000     0.497850000000     0.716620000000    -0.0143906  
C69      C      0.496620000000     0.560670000000     0.202860000000    -0.0124759  
C70      C      0.518360000000     0.481990000000     0.215630000000    -0.0103351  
C71      C      0.541190000000     0.586100000000     0.243620000000    -0.013625   
C72      C      0.566910000000     0.512820000000     0.250930000000    -0.0106436  
C73      C      0.446340000000     0.712330000000     0.446200000000    -0.0126521  
C74      C      0.433180000000     0.692300000000     0.530820000000    -0.00864041 
C75      C      0.508300000000     0.758070000000     0.455640000000    -0.00856459 
C76      C      0.493960000000     0.740790000000     0.541310000000    -0.0153143  
C77      C      0.603750000000     0.271300000000     0.489310000000    -0.00918841 
C78      C      0.549040000000     0.258420000000     0.412830000000    -0.0120616  
C79      C      0.555580000000     0.273880000000     0.512290000000    -0.0123529  
C80      C      0.500710000000     0.262900000000     0.433490000000    -0.0103666  
C81      C      0.581360000000     0.986860000000     0.760160000000    -0.0134464  
C82      C      0.539240000000     0.050900000000     0.743490000000    -0.0103814  
C83      C      0.621570000000     0.016730000000     0.719450000000    -0.0133865  
C84      C      0.584950000000     0.083070000000     0.707180000000    -0.0143113  
C85      C      0.382830000000     0.962510000000     0.200400000000    -0.0115275  
C86      C      0.413860000000     0.892100000000     0.214050000000    -0.00808748 
C87      C      0.420320000000     0.989650000000     0.243710000000    -0.0124389  
C88      C      0.450810000000     0.917000000000     0.257670000000    -0.0145176  
C89      C      0.463240000000     0.715220000000     0.888170000000    -0.0125754  
C90      C      0.520500000000     0.739410000000     0.964720000000    -0.0135279  
C91      C      0.502710000000     0.774230000000     0.868450000000    -0.0108077  
C92      C      0.566530000000     0.792460000000     0.941230000000    -0.0117418  
C93      C      0.486800000000     0.185660000000     0.066540000000    -0.01068    
C94      C      0.401250000000     0.149300000000     0.006990000000    -0.0148075  
C95      C      0.469470000000     0.227460000000     0.076610000000    -0.0115906  
C96      C      0.388520000000     0.194110000000     0.015650000000    -0.0117757  
C97      C      0.827410000000     0.237130000000     0.429930000000    -0.0140702  
C98      C      0.750610000000     0.266160000000     0.412560000000    -0.00872492 
C99      C      0.774780000000     0.184590000000     0.449700000000    -0.0139015  
C100     C      0.727780000000     0.242030000000     0.460810000000    -0.0133443  
C101     C      0.292850000000     0.747680000000     0.501110000000    -0.010801   
C102     C      0.244360000000     0.805220000000     0.507270000000    -0.0157398  
C103     C      0.262650000000     0.720840000000     0.546800000000    -0.0114875  
C104     C      0.188440000000     0.752160000000     0.520490000000    -0.0128567  
C105     C      0.747570000000     0.485560000000     0.501780000000    -0.013851   
C106     C      0.807710000000     0.583610000000     0.478720000000    -0.0156131  
C107     C      0.724710000000     0.473850000000     0.451580000000    -0.0149849  
C108     C      0.776690000000     0.573480000000     0.429290000000    -0.0142256  
C109     C      0.222550000000     0.426360000000     0.529290000000    -0.0137071  
C110     C      0.280750000000     0.524360000000     0.504460000000    -0.00988587 
C111     C      0.196390000000     0.414040000000     0.479170000000    -0.0137044  
C112     C      0.259010000000     0.512230000000     0.453920000000    -0.0147377  
C113     C      0.052590000000     0.497810000000     0.710210000000    -0.012514   
C114     C      0.002520000000     0.553610000000     0.702090000000    -0.00812212 
C115     C      0.003610000000     0.452910000000     0.738900000000    -0.0063716  
C116     C      0.953300000000     0.509490000000     0.731370000000    -0.0140893  
C117     C      0.038880000000     0.529870000000     0.235150000000    -0.0114388  
C118     C      0.026740000000     0.437140000000     0.249000000000    -0.00891815 
C119     C      0.979160000000     0.508440000000     0.208570000000    -0.0129808  
C120     C      0.969000000000     0.415690000000     0.218930000000    -0.0159573  
C121     C      0.715830000000     0.212490000000     0.898320000000    -0.0105534  
C122     C      0.772540000000     0.160190000000     0.916170000000    -0.0143535  
C123     C      0.759950000000     0.247440000000     0.861950000000    -0.00829102 
C124     C      0.822520000000     0.205430000000     0.886010000000    -0.0132699  
C125     C      0.196780000000     0.755700000000     0.987180000000    -0.0126441  
C126     C      0.197620000000     0.783610000000     0.067130000000    -0.0137506  
C127     C      0.130600000000     0.729970000000     0.991830000000    -0.00775097 
C128     C      0.149130000000     0.723660000000     0.078440000000    -0.0157071  
C129     C      0.700370000000     0.485710000000     0.950120000000    -0.00832678 
C130     C      0.643510000000     0.390390000000     0.987110000000    -0.0137602  
C131     C      0.757860000000     0.484390000000     0.962290000000    -0.0133514  
C132     C      0.701890000000     0.389940000000     0.998640000000    -0.00745939 
C133     C      0.216680000000     0.465810000000     0.012070000000    -0.0150118  
C134     C      0.277510000000     0.560990000000     0.980350000000    -0.0106441  
C135     C      0.193460000000     0.447580000000     0.963310000000    -0.0138768  
C136     C      0.249490000000     0.544550000000     0.931200000000    -0.0153319  
C137     C      0.668500000000     0.753870000000     0.502440000000    -0.00697211 
C138     C      0.683910000000     0.747410000000     0.589150000000    -0.0151294  
C139     C      0.734680000000     0.775390000000     0.499710000000    -0.0131276  
C140     C      0.735360000000     0.806250000000     0.578010000000    -0.0142872  
C141     C      0.281660000000     0.285720000000     0.357090000000    -0.00819881 
C142     C      0.344720000000     0.243570000000     0.372880000000    -0.0126278  
C143     C      0.238270000000     0.246500000000     0.392550000000    -0.012546   
C144     C      0.297220000000     0.196200000000     0.403350000000    -0.0154465  
C145     C      0.710150000000     0.915690000000     0.444910000000    -0.00901398 
C146     C      0.741220000000     0.969820000000     0.366470000000    -0.0115466  
C147     C      0.652290000000     0.876300000000     0.420180000000    -0.0161063  
C148     C      0.679560000000     0.931300000000     0.345880000000    -0.0101576  
C149     C      0.374870000000     0.117310000000     0.534550000000    -0.0149474  
C150     C      0.335540000000     0.048220000000     0.603210000000    -0.0117784  
C151     C      0.312740000000     0.088420000000     0.510370000000    -0.0116645  
C152     C      0.284650000000     0.061240000000     0.594130000000    -0.0154509  
C153     C      0.053050000000     0.763640000000     0.393760000000    -0.0161331  
C154     C      0.043600000000     0.757640000000     0.480110000000    -0.0154759  
C155     C      0.100350000000     0.824110000000     0.395890000000    -0.0107216  
C156     C      0.096010000000     0.813930000000     0.481760000000    -0.00491837 
C157     C      0.973180000000     0.237870000000     0.466400000000    -0.0161117  
C158     C      0.948480000000     0.226520000000     0.550260000000    -0.0146032  
C159     C      0.922550000000     0.181630000000     0.459920000000    -0.00415316 
C160     C      0.902620000000     0.166480000000     0.543750000000    -0.0135949  
C161     C      0.885460000000     0.964520000000     0.691640000000    -0.0124419  
C162     C      0.929580000000     0.903770000000     0.703270000000    -0.0102081  
C163     C      0.909600000000     0.984660000000     0.739810000000    -0.011452   
C164     C      0.951970000000     0.920280000000     0.752390000000    -0.0141075  
C165     C      0.104420000000     0.024330000000     0.253640000000    -0.0149726  
C166     C      0.020150000000     0.930500000000     0.262630000000    -0.00374665 
C167     C      0.071170000000     0.037950000000     0.211580000000    -0.0117143  
C168     C      0.986210000000     0.943110000000     0.221580000000    -0.0163763  
C169     C      0.771520000000     0.742510000000     0.991920000000    -0.0163516  
C170     C      0.708630000000     0.785760000000     0.983990000000    -0.0118301  
C171     C      0.718550000000     0.687240000000     0.992670000000    -0.0100601  
C172     C      0.653850000000     0.730130000000     0.993090000000    -0.0146563  
C173     C      0.187050000000     0.222860000000     0.993720000000    -0.0161896  
C174     C      0.255150000000     0.184890000000     0.993820000000    -0.00983769 
C175     C      0.195740000000     0.239320000000     0.941430000000    -0.00444309 
C176     C      0.262830000000     0.201850000000     0.941510000000    -0.0143055  
C177     C      0.738660000000     0.979530000000     0.090910000000    -0.0111828  
C178     C      0.773270000000     0.042610000000     0.016510000000    -0.0087182  
C179     C      0.797210000000     0.018330000000     0.115450000000    -0.00988353 
C180     C      0.828210000000     0.080490000000     0.045360000000    -0.0151702  
C181     C      0.124740000000     0.854360000000     0.920680000000    -0.0115303  
C182     C      0.152700000000     0.916490000000     0.850070000000    -0.00745162 
C183     C      0.182170000000     0.892040000000     0.947270000000    -0.0136687  
C184     C      0.213220000000     0.954320000000     0.872700000000    -0.0146355  
C185     C      0.981920000000     0.703690000000     0.008530000000    -0.0159236  
C186     C      0.924290000000     0.692690000000     0.931670000000    -0.0130354  
C187     C      0.933150000000     0.703980000000     0.032240000000    -0.00971496 
C188     C      0.877210000000     0.695670000000     0.956120000000    -0.00933719 
C189     C      0.003060000000     0.227060000000     0.930850000000    -0.0090568  
C190     C      0.982760000000     0.206720000000     0.015940000000    -0.0126139  
C191     C      0.060720000000     0.277190000000     0.943490000000    -0.0103328  
C192     C      0.041360000000     0.256050000000     0.027110000000    -0.00914486 
H1       H      0.024230000000     0.988810000000     0.874910000000     0.198909   
H2       H      0.901330000000     0.036030000000     0.981990000000     0.197601   
H3       H      0.877120000000     0.837880000000     0.009550000000     0.207004   
H4       H      0.089150000000     0.003910000000     0.059510000000     0.198245   
H5       H      0.844240000000     0.024690000000     0.898060000000     0.126921   
H6       H      0.745450000000     0.927160000000     0.964710000000     0.199652   
H7       H      0.800440000000     0.865830000000     0.086710000000     0.139199   
H8       H      0.904520000000     0.813420000000     0.122750000000     0.198625   
H9       H      0.081130000000     0.875260000000     0.057280000000     0.139376   
H10      H      0.170410000000     0.980340000000     0.026260000000     0.198428   
H11      H      0.127900000000     0.095000000000     0.890930000000     0.133468   
H12      H      0.018000000000     0.096630000000     0.820160000000     0.198639   
H13      H      0.970580000000     0.818250000000     0.137240000000     0.199138   
H14      H      0.209010000000     0.016570000000     0.980290000000     0.205608   
H15      H      0.054980000000     0.135080000000     0.863940000000     0.195185   
H16      H      0.730350000000     0.894600000000     0.017540000000     0.195962   
H17      H      0.871110000000     0.910500000000     0.445750000000     0.198183   
H18      H      0.070810000000     0.085550000000     0.383160000000     0.199169   
H19      H      0.018220000000     0.070630000000     0.564610000000     0.199344   
H20      H      0.081540000000     0.929770000000     0.515190000000     0.188931   
H21      H      0.989310000000     0.077520000000     0.313260000000     0.130957   
H22      H      0.051240000000     0.191150000000     0.400680000000     0.197927   
H23      H      0.158050000000     0.170640000000     0.533820000000     0.137687   
H24      H      0.089830000000     0.063500000000     0.647660000000     0.197247   
H25      H      0.056130000000     0.900280000000     0.609560000000     0.133326   
H26      H      0.985380000000     0.807210000000     0.545740000000     0.193587   
H27      H      0.891490000000     0.833830000000     0.403900000000     0.125445   
H28      H      0.865620000000     0.916210000000     0.326500000000     0.188861   
H29      H      0.149910000000     0.096470000000     0.616900000000     0.19938    
H30      H      0.937220000000     0.815310000000     0.572580000000     0.198531   
H31      H      0.887380000000     0.976650000000     0.297020000000     0.194571   
H32      H      0.101130000000     0.226840000000     0.441420000000     0.196998   
H33      H      0.894360000000     0.407940000000     0.067710000000     0.204514   
H34      H      0.888610000000     0.418150000000     0.878840000000     0.195579   
H35      H      0.030650000000     0.600480000000     0.960350000000     0.204867   
H36      H      0.087070000000     0.442240000000     0.990710000000     0.199898   
H37      H      0.756770000000     0.357970000000     0.908000000000     0.139278   
H38      H      0.843420000000     0.537710000000     0.867210000000     0.200299   
H39      H      0.046270000000     0.627080000000     0.865000000000     0.126849   
H40      H      0.183080000000     0.640000000000     0.920610000000     0.192287   
H41      H      0.176250000000     0.574640000000     0.055890000000     0.142585   
H42      H      0.106790000000     0.404360000000     0.090580000000     0.198057   
H43      H      0.908230000000     0.297010000000     0.067120000000     0.131348   
H44      H      0.795240000000     0.283930000000     0.029340000000     0.187345   
H45      H      0.216970000000     0.639130000000     0.972620000000     0.190949   
H46      H      0.096910000000     0.443740000000     0.122560000000     0.206011   
H47      H      0.742010000000     0.294030000000     0.000500000000     0.190949   
H48      H      0.837310000000     0.485040000000     0.842690000000     0.198747   
H49      H      0.913350000000     0.464840000000     0.557570000000     0.201903   
H50      H      0.931450000000     0.460540000000     0.370330000000     0.193689   
H51      H      0.101650000000     0.627220000000     0.459910000000     0.197299   
H52      H      0.081120000000     0.427390000000     0.508980000000     0.202963   
H53      H      0.852580000000     0.519710000000     0.396640000000     0.143233   
H54      H      0.935940000000     0.600240000000     0.340780000000     0.199198   
H55      H      0.138040000000     0.641720000000     0.370350000000     0.128188   
H56      H      0.234650000000     0.623620000000     0.442410000000     0.192218   
H57      H      0.172110000000     0.527570000000     0.581560000000     0.146763   
H58      H      0.080730000000     0.395900000000     0.600190000000     0.19655    
H59      H      0.916370000000     0.371310000000     0.629240000000     0.137424   
H60      H      0.774210000000     0.370830000000     0.502940000000     0.196564   
H61      H      0.257020000000     0.618170000000     0.497850000000     0.197666   
H62      H      0.035330000000     0.385570000000     0.641190000000     0.195525   
H63      H      0.754130000000     0.381530000000     0.447800000000     0.198099   
H64      H      0.934620000000     0.552960000000     0.311200000000     0.197565   
H65      H      0.465680000000     0.914100000000     0.881740000000     0.191134   
H66      H      0.406800000000     0.873330000000     0.062000000000     0.2004     
H67      H      0.617500000000     0.046620000000     0.016870000000     0.191332   
H68      H      0.420220000000     0.055990000000     0.952440000000     0.19692    
H69      H      0.399350000000     0.757180000000     0.007290000000     0.137042   
H70      H      0.542670000000     0.853400000000     0.087740000000     0.203727   
H71      H      0.601690000000     0.041270000000     0.117830000000     0.128718   
H72      H      0.641300000000     0.143710000000     0.052580000000     0.18296    
H73      H      0.535660000000     0.157130000000     0.912800000000     0.137749   
H74      H      0.396770000000     0.077430000000     0.859800000000     0.194705   
H75      H      0.358220000000     0.901690000000     0.837730000000     0.124844   
H76      H      0.336330000000     0.805900000000     0.888280000000     0.184938   
H77      H      0.622650000000     0.188910000000     0.025360000000     0.193921   
H78      H      0.462640000000     0.098440000000     0.839400000000     0.196521   
H79      H      0.335720000000     0.756540000000     0.926430000000     0.189787   
H80      H      0.497440000000     0.849880000000     0.126090000000     0.19983    
H81      H      0.393140000000     0.953820000000     0.411890000000     0.203315   
H82      H      0.482440000000     0.987810000000     0.591820000000     0.199781   
H83      H      0.589620000000     0.931400000000     0.479400000000     0.19652    
H84      H      0.604990000000     0.125680000000     0.439850000000     0.205598   
H85      H      0.377450000000     0.905650000000     0.603830000000     0.13638    
H86      H      0.451130000000     0.848150000000     0.612560000000     0.203711   
H87      H      0.659250000000     0.953980000000     0.556740000000     0.127191   
H88      H      0.744180000000     0.043250000000     0.479110000000     0.200814   
H89      H      0.670010000000     0.088420000000     0.358710000000     0.140642   
H90      H      0.570360000000     0.134120000000     0.331800000000     0.20119    
H91      H      0.397910000000     0.081480000000     0.414450000000     0.140713   
H92      H      0.301520000000     0.971040000000     0.471780000000     0.19965    
H93      H      0.751980000000     0.072600000000     0.424940000000     0.195913   
H94      H      0.503540000000     0.126480000000     0.315210000000     0.200773   
H95      H      0.287670000000     0.947890000000     0.527290000000     0.20225    
H96      H      0.506470000000     0.881570000000     0.650850000000     0.200612   
H97      H      0.389460000000     0.449200000000     0.073500000000     0.201776   
H98      H      0.369430000000     0.416840000000     0.889080000000     0.196354   
H99      H      0.554230000000     0.598600000000     0.949320000000     0.196604   
H100     H      0.544340000000     0.405370000000     0.010420000000     0.202969   
H101     H      0.276320000000     0.420180000000     0.894430000000     0.131229   
H102     H      0.363060000000     0.550300000000     0.855470000000     0.207752   
H103     H      0.567740000000     0.575100000000     0.850200000000     0.135273   
H104     H      0.667040000000     0.592860000000     0.908750000000     0.191446   
H105     H      0.640950000000     0.505730000000     0.068370000000     0.146153   
H106     H      0.572770000000     0.407030000000     0.110030000000     0.194619   
H107     H      0.349920000000     0.330280000000     0.088680000000     0.132893   
H108     H      0.241440000000     0.350670000000     0.038730000000     0.191618   
H109     H      0.709750000000     0.593640000000     0.956140000000     0.192761   
H110     H      0.522230000000     0.380470000000     0.149910000000     0.200992   
H111     H      0.212040000000     0.350490000000     0.984760000000     0.194535   
H112     H      0.383510000000     0.531310000000     0.811920000000     0.200113   
H113     H      0.419820000000     0.430980000000     0.571840000000     0.195915   
H114     H      0.415880000000     0.453650000000     0.381520000000     0.194453   
H115     H      0.557470000000     0.628770000000     0.473650000000     0.195699   
H116     H      0.611390000000     0.463510000000     0.492170000000     0.19847    
H117     H      0.287020000000     0.396310000000     0.409040000000     0.139157   
H118     H      0.364600000000     0.551820000000     0.371560000000     0.203016   
H119     H      0.566530000000     0.670310000000     0.387910000000     0.125369   
H120     H      0.712240000000     0.668610000000     0.434080000000     0.196487   
H121     H      0.704950000000     0.587490000000     0.562360000000     0.140864   
H122     H      0.632210000000     0.420120000000     0.577660000000     0.194355   
H123     H      0.423600000000     0.330790000000     0.584310000000     0.124699   
H124     H      0.324630000000     0.310060000000     0.527930000000     0.187303   
H125     H      0.746990000000     0.658610000000     0.482920000000     0.196492   
H126     H      0.629250000000     0.456830000000     0.616840000000     0.204931   
H127     H      0.270290000000     0.320640000000     0.502190000000     0.195217   
H128     H      0.383180000000     0.522180000000     0.335370000000     0.19424    
H129     H      0.381420000000     0.427250000000     0.716090000000     0.0337935  
H130     H      0.424480000000     0.363420000000     0.732510000000     0.0385533  
H131     H      0.524110000000     0.412430000000     0.705500000000     0.0437608  
H132     H      0.392480000000     0.471990000000     0.758230000000     0.0301542  
H133     H      0.452900000000     0.522370000000     0.691690000000     0.0413284  
H134     H      0.500430000000     0.525290000000     0.741860000000     0.045906   
H135     H      0.474940000000     0.371930000000     0.781860000000     0.0417231  
H136     H      0.548430000000     0.459650000000     0.748480000000     0.0387242  
H137     H      0.477960000000     0.452070000000     0.233460000000     0.0395992  
H138     H      0.451420000000     0.540810000000     0.215350000000     0.0345649  
H139     H      0.526690000000     0.608740000000     0.262370000000     0.0446231  
H140     H      0.534010000000     0.459500000000     0.197860000000     0.0394613  
H141     H      0.576600000000     0.484480000000     0.275250000000     0.0422364  
H142     H      0.608010000000     0.540650000000     0.233010000000     0.0386138  
H143     H      0.501070000000     0.593840000000     0.176220000000     0.0409799  
H144     H      0.584390000000     0.616030000000     0.229640000000     0.038607   
H145     H      0.399400000000     0.705620000000     0.527700000000     0.0309693  
H146     H      0.414420000000     0.727860000000     0.442860000000     0.0427963  
H147     H      0.521120000000     0.789150000000     0.425690000000     0.0476298  
H148     H      0.421020000000     0.660320000000     0.560070000000     0.0413969  
H149     H      0.492570000000     0.758990000000     0.572450000000     0.0407004  
H150     H      0.527080000000     0.726770000000     0.549110000000     0.0488665  
H151     H      0.442900000000     0.695430000000     0.412890000000     0.0432803  
H152     H      0.540140000000     0.742470000000     0.458700000000     0.0336155  
H153     H      0.582720000000     0.299160000000     0.399230000000     0.0379585  
H154     H      0.636290000000     0.312700000000     0.475960000000     0.0285573  
H155     H      0.576100000000     0.301450000000     0.540620000000     0.0364307  
H156     H      0.530810000000     0.232720000000     0.383150000000     0.0379354  
H157     H      0.482960000000     0.282820000000     0.406400000000     0.0451783  
H158     H      0.464160000000     0.221740000000     0.442610000000     0.0343605  
H159     H      0.628470000000     0.256530000000     0.515000000000     0.0427819  
H160     H      0.524430000000     0.233170000000     0.527880000000     0.048375   
H161     H      0.496610000000     0.023060000000     0.726090000000     0.0398052  
H162     H      0.543280000000     0.949110000000     0.748220000000     0.0329903  
H163     H      0.627940000000     0.987330000000     0.702470000000     0.0427922  
H164     H      0.532890000000     0.080250000000     0.760660000000     0.036146   
H165     H      0.567590000000     0.104500000000     0.681110000000     0.0404091  
H166     H      0.625860000000     0.114300000000     0.724040000000     0.0401136  
H167     H      0.606600000000     0.975050000000     0.787990000000     0.0426715  
H168     H      0.665630000000     0.046400000000     0.733520000000     0.0408754  
H169     H      0.369410000000     0.859990000000     0.224070000000     0.0352705  
H170     H      0.337010000000     0.933740000000     0.209940000000     0.0389945  
H171     H      0.396140000000     0.005250000000     0.260550000000     0.0389007  
H172     H      0.433980000000     0.872050000000     0.198080000000     0.0342324  
H173     H      0.447040000000     0.883140000000     0.283220000000     0.0437392  
H174     H      0.497690000000     0.941660000000     0.249070000000     0.0450319  
H175     H      0.381580000000     0.994190000000     0.174500000000     0.0419013  
H176     H      0.462720000000     0.024600000000     0.232760000000     0.0425791  
H177     H      0.487580000000     0.745940000000     0.979980000000     0.041916   
H178     H      0.421150000000     0.711230000000     0.897570000000     0.0340071  
H179     H      0.475510000000     0.788680000000     0.845430000000     0.0304305  
H180     H      0.542490000000     0.725910000000     0.993750000000     0.0423601  
H181     H      0.591180000000     0.822480000000     0.967360000000     0.0326858  
H182     H      0.598600000000     0.785610000000     0.925120000000     0.0377028  
H183     H      0.452640000000     0.688060000000     0.860240000000     0.0390463  
H184     H      0.534870000000     0.774440000000     0.846330000000     0.03735    
H185     H      0.424910000000     0.161190000000     0.974410000000     0.0405313  
H186     H      0.523650000000     0.205490000000     0.042800000000     0.0381239  
H187     H      0.510060000000     0.264170000000     0.087360000000     0.034253   
H188     H      0.358310000000     0.112350000000     0.001390000000     0.0351235  
H189     H      0.372260000000     0.206390000000     0.982220000000     0.0401998  
H190     H      0.353390000000     0.177480000000     0.040710000000     0.0347066  
H191     H      0.502770000000     0.172100000000     0.099850000000     0.0360648  
H192     H      0.439380000000     0.211120000000     0.105640000000     0.0393775  
H193     H      0.743570000000     0.301400000000     0.401350000000     0.0367506  
H194     H      0.862030000000     0.251150000000     0.458530000000     0.0501794  
H195     H      0.792140000000     0.161230000000     0.473200000000     0.0382307  
H196     H      0.724930000000     0.235900000000     0.386850000000     0.0362012  
H197     H      0.752450000000     0.272270000000     0.486640000000     0.0463756  
H198     H      0.681030000000     0.232060000000     0.459110000000     0.0390175  
H199     H      0.844660000000     0.228380000000     0.400760000000     0.0347579  
H200     H      0.750030000000     0.160150000000     0.420310000000     0.0298687  
H201     H      0.263470000000     0.827310000000     0.538940000000     0.0445677  
H202     H      0.339190000000     0.755900000000     0.506330000000     0.0392054  
H203     H      0.285450000000     0.749000000000     0.574500000000     0.0406381  
H204     H      0.230950000000     0.830330000000     0.481960000000     0.0402613  
H205     H      0.164290000000     0.759710000000     0.545210000000     0.0365367  
H206     H      0.160080000000     0.739390000000     0.488040000000     0.0386035  
H207     H      0.270770000000     0.719800000000     0.473200000000     0.036417   
H208     H      0.267440000000     0.684440000000     0.558210000000     0.0340938  
H209     H      0.784500000000     0.596250000000     0.499800000000     0.0360369  
H210     H      0.717010000000     0.492960000000     0.519260000000     0.0362685  
H211     H      0.681730000000     0.436050000000     0.451390000000     0.0328654  
H212     H      0.853460000000     0.617460000000     0.476130000000     0.0406493  
H213     H      0.769410000000     0.608040000000     0.415720000000     0.0405894  
H214     H      0.807050000000     0.573040000000     0.405750000000     0.0312997  
H215     H      0.747390000000     0.449470000000     0.521500000000     0.0368039  
H216     H      0.755340000000     0.467090000000     0.433540000000     0.0386438  
H217     H      0.251530000000     0.534210000000     0.520730000000     0.0350733  
H218     H      0.191770000000     0.431760000000     0.548570000000     0.037804   
H219     H      0.150190000000     0.380850000000     0.480710000000     0.0339102  
H220     H      0.324920000000     0.560670000000     0.505350000000     0.0434358  
H221     H      0.259050000000     0.548090000000     0.433980000000     0.037744   
H222     H      0.290740000000     0.505380000000     0.437430000000     0.047569   
H223     H      0.225400000000     0.390980000000     0.547580000000     0.0357693  
H224     H      0.220680000000     0.398990000000     0.462210000000     0.03924    
H225     H      0.036820000000     0.583430000000     0.725080000000     0.0430196  
H226     H      0.087620000000     0.525830000000     0.734000000000     0.0395407  
H227     H      0.022670000000     0.431980000000     0.763840000000     0.0400744  
H228     H      0.984670000000     0.575520000000     0.677070000000     0.037957   
H229     H      0.935050000000     0.528590000000     0.750690000000     0.0431346  
H230     H      0.916880000000     0.482480000000     0.707870000000     0.0337389  
H231     H      0.073500000000     0.480770000000     0.691220000000     0.0375758  
H232     H      0.970270000000     0.422680000000     0.715730000000     0.0303051  
H233     H      0.063460000000     0.447510000000     0.226800000000     0.0368606  
H234     H      0.073620000000     0.541460000000     0.210500000000     0.0391422  
H235     H      0.979280000000     0.540920000000     0.183010000000     0.0405321  
H236     H      0.024980000000     0.405070000000     0.275830000000     0.0412148  
H237     H      0.963120000000     0.381480000000     0.200380000000     0.0435054  
H238     H      0.931730000000     0.399280000000     0.241990000000     0.0364556  
H239     H      0.049610000000     0.567270000000     0.251080000000     0.044991   
H240     H      0.944300000000     0.497340000000     0.232940000000     0.0328578  
H241     H      0.787920000000     0.165530000000     0.953280000000     0.0314791  
H242     H      0.726530000000     0.233660000000     0.930430000000     0.0434885  
H243     H      0.760050000000     0.286680000000     0.853770000000     0.0276751  
H244     H      0.766440000000     0.120440000000     0.908620000000     0.0415724  
H245     H      0.866030000000     0.213160000000     0.902500000000     0.0358064  
H246     H      0.818670000000     0.190700000000     0.851520000000     0.0396287  
H247     H      0.671880000000     0.206040000000     0.883750000000     0.032834   
H248     H      0.746550000000     0.227010000000     0.829150000000     0.0365501  
H249     H      0.228990000000     0.796980000000     0.097910000000     0.0372157  
H250     H      0.209530000000     0.723850000000     0.987280000000     0.0446844  
H251     H      0.106280000000     0.705820000000     0.961800000000     0.0251181  
H252     H      0.176770000000     0.809840000000     0.060960000000     0.0378516  
H253     H      0.171310000000     0.701100000000     0.096390000000     0.0340809  
H254     H      0.118550000000     0.722630000000     0.102660000000     0.0341739  
H255     H      0.207460000000     0.780400000000     0.953260000000     0.0345851  
H256     H      0.118030000000     0.762070000000     0.990690000000     0.0310933  
H257     H      0.629930000000     0.397680000000     0.019140000000     0.0325792  
H258     H      0.696840000000     0.508980000000     0.975810000000     0.0305705  
H259     H      0.792250000000     0.525840000000     0.970300000000     0.0409697  
H260     H      0.609810000000     0.349520000000     0.977220000000     0.0379598  
H261     H      0.698030000000     0.365510000000     0.032390000000     0.0315222  
H262     H      0.707750000000     0.368800000000     0.971930000000     0.0322127  
H263     H      0.704240000000     0.508400000000     0.915440000000     0.0325883  
H264     H      0.770850000000     0.474680000000     0.931260000000     0.0470162  
H265     H      0.252730000000     0.576220000000     0.996510000000     0.0328036  
H266     H      0.186130000000     0.475450000000     0.026570000000     0.036411   
H267     H      0.149310000000     0.411560000000     0.965580000000     0.031502   
H268     H      0.323200000000     0.594850000000     0.977430000000     0.0391167  
H269     H      0.243700000000     0.577940000000     0.911830000000     0.0354358  
H270     H      0.280780000000     0.539600000000     0.912060000000     0.0421578  
H271     H      0.216360000000     0.431950000000     0.035770000000     0.0371643  
H272     H      0.221440000000     0.434520000000     0.949630000000     0.0366622  
H273     H      0.654250000000     0.748570000000     0.612970000000     0.0368006  
H274     H      0.659130000000     0.788170000000     0.499890000000     0.032983   
H275     H      0.747860000000     0.798660000000     0.465380000000     0.0281232  
H276     H      0.703620000000     0.722950000000     0.607570000000     0.0347771  
H277     H      0.717000000000     0.834440000000     0.570590000000     0.0432591  
H278     H      0.766020000000     0.818810000000     0.609260000000     0.0380391  
H279     H      0.644010000000     0.730190000000     0.472190000000     0.0201572  
H280     H      0.744460000000     0.741450000000     0.502080000000     0.0482126  
H281     H      0.338200000000     0.231460000000     0.336930000000     0.0369019  
H282     H      0.267790000000     0.269050000000     0.322550000000     0.0349452  
H283     H      0.193960000000     0.240040000000     0.379080000000     0.0352982  
H284     H      0.388840000000     0.250440000000     0.386240000000     0.0336538  
H285     H      0.292010000000     0.157540000000     0.393700000000     0.0416365  
H286     H      0.314280000000     0.200600000000     0.440170000000     0.0353411  
H287     H      0.281110000000     0.324800000000     0.353230000000     0.0267133  
H288     H      0.248650000000     0.264770000000     0.426210000000     0.0423894  
H289     H      0.743330000000     0.008720000000     0.371310000000     0.0381391  
H290     H      0.702920000000     0.943210000000     0.463840000000     0.034205   
H291     H      0.617590000000     0.856230000000     0.445680000000     0.0312408  
H292     H      0.773360000000     0.978460000000     0.340340000000     0.0383046  
H293     H      0.665590000000     0.953580000000     0.317750000000     0.0306385  
H294     H      0.681910000000     0.899160000000     0.329670000000     0.0341416  
H295     H      0.723630000000     0.891180000000     0.471010000000     0.0370922  
H296     H      0.657730000000     0.844280000000     0.406750000000     0.0339727  
H297     H      0.316280000000     0.004050000000     0.600740000000     0.0410474  
H298     H      0.408260000000     0.133250000000     0.507940000000     0.0380825  
H299     H      0.310800000000     0.058600000000     0.488160000000     0.0390817  
H300     H      0.354720000000     0.057120000000     0.639140000000     0.0327838  
H301     H      0.248130000000     0.030910000000     0.615680000000     0.0428481  
H302     H      0.298580000000     0.101760000000     0.605560000000     0.0362812  
H303     H      0.380220000000     0.152470000000     0.551370000000     0.0385324  
H304     H      0.305160000000     0.119030000000     0.487650000000     0.0364805  
H305     H      0.001860000000     0.759380000000     0.477600000000     0.0472721  
H306     H      0.010230000000     0.761290000000     0.381210000000     0.0407041  
H307     H      0.095330000000     0.848100000000     0.364190000000     0.0344794  
H308     H      0.045430000000     0.735250000000     0.513820000000     0.0430814  
H309     H      0.094380000000     0.833310000000     0.512120000000     0.0203874  
H310     H      0.137030000000     0.811660000000     0.486590000000     0.0315223  
H311     H      0.065770000000     0.746450000000     0.367720000000     0.043234   
H312     H      0.144600000000     0.827530000000     0.396280000000     0.0383844  
H313     H      0.989350000000     0.228350000000     0.567690000000     0.0350998  
H314     H      0.015120000000     0.236660000000     0.473590000000     0.0473722  
H315     H      0.930550000000     0.164510000000     0.430830000000     0.0356351  
H316     H      0.930430000000     0.241930000000     0.573760000000     0.0424012  
H317     H      0.902370000000     0.140850000000     0.576000000000     0.0355424  
H318     H      0.858160000000     0.162790000000     0.537920000000     0.0405712  
H319     H      0.976300000000     0.261910000000     0.432650000000     0.0444412  
H320     H      0.881510000000     0.182300000000     0.449560000000     0.0299659  
H321     H      0.885910000000     0.866670000000     0.704540000000     0.0370613  
H322     H      0.839960000000     0.930090000000     0.693720000000     0.042342   
H323     H      0.876660000000     0.991680000000     0.754530000000     0.0426268  
H324     H      0.959920000000     0.893160000000     0.688940000000     0.039079   
H325     H      0.946410000000     0.883400000000     0.774370000000     0.0426196  
H326     H      0.999800000000     0.949630000000     0.752280000000     0.0344401  
H327     H      0.883660000000     0.997910000000     0.668510000000     0.0415655  
H328     H      0.951010000000     0.023810000000     0.736360000000     0.0334393  
H329     H      0.044990000000     0.912680000000     0.250140000000     0.0370675  
H330     H      0.133580000000     0.011030000000     0.241250000000     0.040449   
H331     H      0.103900000000     0.066360000000     0.186300000000     0.0379224  
H332     H      0.989070000000     0.899710000000     0.287870000000     0.0340148  
H333     H      0.958430000000     0.905600000000     0.203720000000     0.040271   
H334     H      0.956070000000     0.954930000000     0.234540000000     0.0371786  
H335     H      0.132650000000     0.061240000000     0.272240000000     0.0370564  
H336     H      0.048600000000     0.058500000000     0.223020000000     0.035203   
H337     H      0.724180000000     0.805220000000     0.017040000000     0.0312083  
H338     H      0.787070000000     0.753900000000     0.028040000000     0.0353456  
H339     H      0.731480000000     0.659460000000     0.014660000000     0.0357072  
H340     H      0.695160000000     0.811290000000     0.959290000000     0.0345568  
H341     H      0.629050000000     0.734470000000     0.019330000000     0.0384118  
H342     H      0.626120000000     0.719340000000     0.960230000000     0.0364864  
H343     H      0.806370000000     0.739940000000     0.976080000000     0.0414219  
H344     H      0.707790000000     0.675470000000     0.956500000000     0.0346393  
H345     H      0.290620000000     0.217640000000     0.013760000000     0.0381833  
H346     H      0.218970000000     0.256920000000     0.014120000000     0.041628   
H347     H      0.189550000000     0.275070000000     0.930580000000     0.0284978  
H348     H      0.260090000000     0.148280000000     0.003150000000     0.0381712  
H349     H      0.306010000000     0.209850000000     0.931030000000     0.0419339  
H350     H      0.228980000000     0.168460000000     0.921360000000     0.0447704  
H351     H      0.142320000000     0.213730000000     0.001590000000     0.0420165  
H352     H      0.161440000000     0.205930000000     0.921340000000     0.0280873  
H353     H      0.784360000000     0.019960000000     0.994750000000     0.0353127  
H354     H      0.740240000000     0.942910000000     0.083970000000     0.0350037  
H355     H      0.810880000000     0.995310000000     0.143060000000     0.0273774  
H356     H      0.759460000000     0.068530000000     0.992660000000     0.0351706  
H357     H      0.865330000000     0.104900000000     0.022310000000     0.0300789  
H358     H      0.819250000000     0.109250000000     0.060880000000     0.0342143  
H359     H      0.703760000000     0.966130000000     0.115760000000     0.0408198  
H360     H      0.790570000000     0.047290000000     0.132920000000     0.0354675  
H361     H      0.156980000000     0.887160000000     0.831160000000     0.0373967  
H362     H      0.131380000000     0.824800000000     0.904150000000     0.0359871  
H363     H      0.196290000000     0.866170000000     0.970840000000     0.0421999  
H364     H      0.138300000000     0.940200000000     0.823820000000     0.0327867  
H365     H      0.246280000000     0.967620000000     0.846220000000     0.0413769  
H366     H      0.213150000000     0.990990000000     0.881730000000     0.0443556  
H367     H      0.089170000000     0.830860000000     0.945270000000     0.0334294  
H368     H      0.173600000000     0.916330000000     0.969060000000     0.0434592  
H369     H      0.955550000000     0.733520000000     0.916380000000     0.0480891  
H370     H      0.015040000000     0.745890000000     0.997840000000     0.0378973  
H371     H      0.951180000000     0.727190000000     0.063460000000     0.037541   
H372     H      0.903170000000     0.665710000000     0.902970000000     0.0376697  
H373     H      0.854310000000     0.713200000000     0.931400000000     0.04161    
H374     H      0.843270000000     0.654090000000     0.967680000000     0.0296649  
H375     H      0.005350000000     0.687000000000     0.033470000000     0.0534592  
H376     H      0.900500000000     0.661980000000     0.044010000000     0.0424238  
H377     H      0.947350000000     0.218070000000     0.011580000000     0.0365224  
H378     H      0.968120000000     0.238450000000     0.921070000000     0.0429341  
H379     H      0.073680000000     0.309290000000     0.914300000000     0.0408933  
H380     H      0.971260000000     0.175370000000     0.045650000000     0.0474943  
H381     H      0.039670000000     0.272120000000     0.059460000000     0.0397614  
H382     H      0.076590000000     0.244500000000     0.033210000000     0.0374668  
H383     H      0.009080000000     0.210850000000     0.900280000000     0.0387473  
H384     H      0.096480000000     0.266420000000     0.949630000000     0.0279883  
N1       N      0.493520000000     0.471470000000     0.694400000000    -0.166003   
N2       N      0.434280000000     0.422360000000     0.775250000000    -0.168407   
N3       N      0.548150000000     0.543990000000     0.273990000000    -0.166522   
N4       N      0.505390000000     0.519850000000     0.183310000000    -0.167073   
N5       N      0.510040000000     0.779490000000     0.499910000000    -0.167586   
N6       N      0.433930000000     0.672560000000     0.486390000000    -0.169123   
N7       N      0.524100000000     0.292320000000     0.476040000000    -0.168896   
N8       N      0.575610000000     0.236890000000     0.450360000000    -0.168879   
N9       N      0.598000000000     0.045970000000     0.686510000000    -0.163769   
N10      N      0.558860000000     0.019370000000     0.777720000000    -0.163341   
N11      N      0.432480000000     0.951850000000     0.276660000000    -0.162808   
N12      N      0.407780000000     0.933190000000     0.181720000000    -0.164701   
N13      N      0.535810000000     0.811180000000     0.905060000000    -0.166088   
N14      N      0.490700000000     0.699400000000     0.929940000000    -0.162758   
N15      N      0.440210000000     0.240330000000     0.034970000000    -0.163179   
N16      N      0.437240000000     0.138740000000     0.045060000000    -0.165033   
N17      N      0.734190000000     0.193540000000     0.474610000000    -0.168537   
N18      N      0.812870000000     0.280140000000     0.413610000000    -0.166441   
N19      N      0.200600000000     0.708680000000     0.541010000000    -0.166453   
N20      N      0.289900000000     0.797840000000     0.487650000000    -0.165004   
N21      N      0.721210000000     0.521110000000     0.428390000000    -0.169249   
N22      N      0.806340000000     0.534020000000     0.501790000000    -0.166291   
N23      N      0.200630000000     0.463250000000     0.452380000000    -0.16828    
N24      N      0.280300000000     0.476210000000     0.529670000000    -0.165292   
N25      N      0.975780000000     0.477080000000     0.761870000000    -0.16868    
N26      N      0.028160000000     0.527790000000     0.679020000000    -0.167674   
N27      N      0.968280000000     0.460090000000     0.187030000000    -0.167363   
N28      N      0.037100000000     0.486150000000     0.269140000000    -0.167046   
N29      N      0.818250000000     0.255330000000     0.879080000000    -0.165935   
N30      N      0.715450000000     0.160470000000     0.909500000000    -0.162082   
N31      N      0.115290000000     0.697040000000     0.036480000000    -0.165439   
N32      N      0.229290000000     0.789820000000     0.025610000000    -0.164056   
N33      N      0.753270000000     0.444560000000     0.001210000000    -0.163448   
N34      N      0.647210000000     0.431990000000     0.950000000000    -0.168446   
N35      N      0.193400000000     0.492900000000     0.932880000000    -0.169965   
N36      N      0.275430000000     0.514100000000     0.009600000000    -0.166436   
N37      N      0.767670000000     0.810080000000     0.537630000000    -0.162752   
N38      N      0.649270000000     0.721470000000     0.547080000000    -0.164168   
N39      N      0.239310000000     0.194690000000     0.399730000000    -0.161727   
N40      N      0.340470000000     0.293220000000     0.371490000000    -0.16506    
N41      N      0.636250000000     0.905920000000     0.381660000000    -0.165231   
N42      N      0.756380000000     0.947880000000     0.411620000000    -0.163925   
N43      N      0.266360000000     0.060440000000     0.544230000000    -0.163976   
N44      N      0.382290000000     0.079150000000     0.570010000000    -0.166069   
N45      N      0.096690000000     0.845540000000     0.438030000000    -0.168664   
N46      N      0.045750000000     0.732300000000     0.439590000000    -0.161985   
N47      N      0.915230000000     0.148130000000     0.503590000000    -0.169946   
N48      N      0.963370000000     0.260410000000     0.505550000000    -0.163972   
N49      N      0.921490000000     0.945470000000     0.770720000000    -0.165797   
N50      N      0.923350000000     0.946900000000     0.674430000000    -0.166567   
N51      N      0.027120000000     0.988080000000     0.190530000000    -0.164859   
N52      N      0.061770000000     0.980470000000     0.284020000000    -0.1667     
N53      N      0.666900000000     0.685940000000     0.009940000000    -0.165878   
N54      N      0.756640000000     0.781900000000     0.965860000000    -0.171195   
N55      N      0.254730000000     0.249420000000     0.931340000000    -0.168916   
N56      N      0.197620000000     0.176540000000     0.006120000000    -0.167874   
N57      N      0.843220000000     0.048530000000     0.082270000000    -0.166592   
N58      N      0.725180000000     0.004180000000     0.046520000000    -0.163456   
N59      N      0.228750000000     0.928570000000     0.915270000000    -0.162581   
N60      N      0.108640000000     0.886600000000     0.884930000000    -0.165733   
N61      N      0.905490000000     0.727050000000     0.997060000000    -0.169388   
N62      N      0.955880000000     0.673320000000     0.966780000000    -0.168376   
N63      N      0.053270000000     0.295160000000     0.986430000000    -0.170967   
N64      N      0.986450000000     0.187800000000     0.971930000000    -0.16995    
O1       O      0.156680000000     0.088080000000     0.996220000000    -0.389552   
O2       O      0.102470000000     0.118330000000     0.025320000000    -0.364926   
O3       O      0.929600000000     0.989920000000     0.833400000000    -0.375705   
O4       O      0.927920000000     0.908760000000     0.843770000000    -0.385016   
O5       O      0.976360000000     0.118490000000     0.933370000000    -0.376593   
O6       O      0.996810000000     0.119720000000     0.011430000000    -0.373419   
O7       O      0.106510000000     0.956850000000     0.910100000000    -0.380847   
O8       O      0.021470000000     0.877750000000     0.903660000000    -0.358127   
O9       O      0.144480000000     0.070090000000     0.897420000000    -0.349305   
O10      O      0.172720000000     0.999510000000     0.996050000000    -0.524197   
O11      O      0.023210000000     0.101940000000     0.852850000000    -0.528803   
O12      O      0.873730000000     0.042910000000     0.874180000000    -0.339604   
O13      O      0.039850000000     0.057990000000     0.960650000000    -0.499117   
O14      O      0.009530000000     0.983920000000     0.905160000000    -0.636234   
O15      O      0.948340000000     0.807610000000     0.030070000000    -0.375848   
O16      O      0.921430000000     0.803180000000     0.952970000000    -0.37387    
O17      O      0.842070000000     0.981090000000     0.049580000000    -0.393048   
O18      O      0.929700000000     0.052470000000     0.069700000000    -0.362214   
O19      O      0.802860000000     0.870650000000     0.939120000000    -0.363969   
O20      O      0.840060000000     0.819780000000     0.925030000000    -0.352094   
O21      O      0.997050000000     0.938100000000     0.128290000000    -0.368821   
O22      O      0.033430000000     0.029030000000     0.116940000000    -0.382153   
O23      O      0.945890000000     0.829800000000     0.117550000000    -0.517093   
O24      O      0.078890000000     0.898140000000     0.079050000000    -0.367063   
O25      O      0.815420000000     0.851830000000     0.065090000000    -0.373061   
O26      O      0.757680000000     0.913320000000     0.993330000000    -0.523988   
O27      O      0.905490000000     0.875030000000     0.002170000000    -0.633038   
O28      O      0.936550000000     0.948920000000     0.058040000000    -0.492187   
O29      O      0.023980000000     0.915060000000     0.980870000000    -0.499517   
O30      O      0.921200000000     0.015210000000     0.981610000000    -0.634514   
O31      O      0.056210000000     0.991480000000     0.036920000000    -0.632832   
O32      O      0.889560000000     0.940760000000     0.926950000000    -0.475401   
O33      O      0.025050000000     0.860030000000     0.456420000000    -0.381933   
O34      O      0.108110000000     0.930430000000     0.426540000000    -0.370699   
O35      O      0.851480000000     0.978120000000     0.394720000000    -0.369532   
O36      O      0.828090000000     0.965960000000     0.469930000000    -0.369316   
O37      O      0.999490000000     0.971460000000     0.337120000000    -0.371558   
O38      O      0.097880000000     0.014540000000     0.354210000000    -0.373395   
O39      O      0.856940000000     0.840620000000     0.507440000000    -0.370721   
O40      O      0.839910000000     0.897890000000     0.542980000000    -0.355188   
O41      O      0.902540000000     0.815570000000     0.431260000000    -0.341736   
O42      O      0.960710000000     0.823540000000     0.546300000000    -0.532263   
O43      O      0.889270000000     0.955090000000     0.324910000000    -0.515526   
O44      O      0.973650000000     0.080580000000     0.341550000000    -0.365115   
O45      O      0.002430000000     0.947460000000     0.417530000000    -0.481411   
O46      O      0.911020000000     0.936040000000     0.454700000000    -0.635212   
O47      O      0.992610000000     0.962480000000     0.624710000000    -0.372327   
O48      O      0.919100000000     0.981950000000     0.600360000000    -0.374201   
O49      O      0.151070000000     0.157850000000     0.432640000000    -0.379899   
O50      O      0.184360000000     0.101990000000     0.416810000000    -0.353115   
O51      O      0.986190000000     0.132130000000     0.486690000000    -0.380907   
O52      O      0.909930000000     0.066500000000     0.526940000000    -0.374431   
O53      O      0.170660000000     0.028600000000     0.560520000000    -0.367251   
O54      O      0.193590000000     0.034640000000     0.485950000000    -0.361398   
O55      O      0.110930000000     0.066370000000     0.621280000000    -0.530235   
O56      O      0.088740000000     0.936430000000     0.616390000000    -0.346534   
O57      O      0.118030000000     0.165350000000     0.536060000000    -0.3639     
O58      O      0.073540000000     0.192420000000     0.429730000000    -0.514837   
O59      O      0.017750000000     0.050640000000     0.539970000000    -0.62389    
O60      O      0.109000000000     0.060820000000     0.500720000000    -0.502461   
O61      O      0.967490000000     0.936430000000     0.544630000000    -0.497222   
O62      O      0.052730000000     0.061500000000     0.410040000000    -0.627969   
O63      O      0.059560000000     0.948550000000     0.504800000000    -0.61921    
O64      O      0.960580000000     0.049280000000     0.450670000000    -0.487098   
O65      O      0.025490000000     0.345130000000     0.022380000000    -0.381192   
O66      O      0.024940000000     0.351110000000     0.943610000000    -0.371483   
O67      O      0.809700000000     0.406940000000     0.030040000000    -0.388401   
O68      O      0.851380000000     0.496160000000     0.024720000000    -0.344027   
O69      O      0.831100000000     0.317770000000     0.925620000000    -0.392815   
O70      O      0.911500000000     0.325900000000     0.894910000000    -0.36076    
O71      O      0.981360000000     0.427840000000     0.124120000000    -0.378919   
O72      O      0.959450000000     0.496660000000     0.114370000000    -0.388585   
O73      O      0.936700000000     0.319240000000     0.091200000000    -0.349193   
O74      O      0.083980000000     0.420680000000     0.097350000000    -0.524215   
O75      O      0.783280000000     0.306030000000     0.007970000000    -0.520104   
O76      O      0.783520000000     0.395640000000     0.915600000000    -0.362745   
O77      O      0.935080000000     0.370740000000     0.982700000000    -0.501999   
O78      O      0.916980000000     0.424000000000     0.040510000000    -0.630284   
O79      O      0.113820000000     0.626810000000     0.008330000000    -0.391381   
O80      O      0.039110000000     0.610810000000     0.052000000000    -0.346335   
O81      O      0.960080000000     0.504260000000     0.826210000000    -0.38333    
O82      O      0.990450000000     0.441320000000     0.834000000000    -0.379792   
O83      O      0.943830000000     0.603400000000     0.928040000000    -0.37739    
O84      O      0.951300000000     0.599330000000     0.007090000000    -0.377566   
O85      O      0.134110000000     0.530320000000     0.913110000000    -0.370699   
O86      O      0.096440000000     0.442330000000     0.908860000000    -0.355402   
O87      O      0.182830000000     0.622880000000     0.951520000000    -0.51807    
O88      O      0.159490000000     0.539630000000     0.042190000000    -0.365027   
O89      O      0.006070000000     0.609880000000     0.850090000000    -0.335832   
O90      O      0.858870000000     0.514160000000     0.862630000000    -0.525032   
O91      O      0.015090000000     0.562090000000     0.965700000000    -0.640783   
O92      O      0.032920000000     0.511610000000     0.909400000000    -0.476081   
O93      O      0.037710000000     0.502120000000     0.043700000000    -0.490387   
O94      O      0.912460000000     0.433160000000     0.906490000000    -0.629423   
O95      O      0.054910000000     0.449980000000     0.985690000000    -0.626052   
O96      O      0.893810000000     0.485290000000     0.964780000000    -0.483614   
O97      O      0.972620000000     0.335310000000     0.536350000000    -0.363161   
O98      O      0.991440000000     0.339470000000     0.461140000000    -0.368782   
O99      O      0.847210000000     0.479980000000     0.511190000000    -0.396245   
O100     O      0.908140000000     0.568420000000     0.512440000000    -0.356701   
O101     O      0.840990000000     0.364990000000     0.427910000000    -0.383797   
O102     O      0.910470000000     0.345200000000     0.411000000000    -0.357569   
O103     O      0.017100000000     0.478420000000     0.620000000000    -0.377691   
O104     O      0.003370000000     0.551980000000     0.605360000000    -0.381885   
O105     O      0.902390000000     0.368120000000     0.596150000000    -0.360676   
O106     O      0.046900000000     0.396750000000     0.609540000000    -0.522432   
O107     O      0.784470000000     0.389390000000     0.472430000000    -0.507777   
O108     O      0.844630000000     0.483560000000     0.389780000000    -0.364571   
O109     O      0.937630000000     0.403410000000     0.481700000000    -0.49524    
O110     O      0.937200000000     0.472780000000     0.531610000000    -0.61914    
O111     O      0.170820000000     0.622320000000     0.530520000000    -0.393496   
O112     O      0.101770000000     0.646550000000     0.538450000000    -0.358117   
O113     O      0.032500000000     0.529230000000     0.327570000000    -0.378317   
O114     O      0.020400000000     0.444280000000     0.342820000000    -0.382973   
O115     O      0.033950000000     0.656230000000     0.409100000000    -0.367854   
O116     O      0.021440000000     0.654600000000     0.485510000000    -0.366267   
O117     O      0.154620000000     0.512720000000     0.429110000000    -0.370829   
O118     O      0.101060000000     0.424110000000     0.431040000000    -0.362278   
O119     O      0.226010000000     0.606760000000     0.473600000000    -0.522183   
O120     O      0.161330000000     0.502600000000     0.557090000000    -0.373887   
O121     O      0.102830000000     0.638180000000     0.351130000000    -0.337924   
O122     O      0.949590000000     0.575060000000     0.337160000000    -0.528947   
O123     O      0.073900000000     0.589310000000     0.464770000000    -0.634171   
O124     O      0.074410000000     0.520230000000     0.417510000000    -0.475516   
O125     O      0.056950000000     0.519870000000     0.545870000000    -0.488176   
O126     O      0.952770000000     0.472370000000     0.399620000000    -0.627622   
O127     O      0.060700000000     0.447730000000     0.499150000000    -0.626601   
O128     O      0.950600000000     0.545230000000     0.448370000000    -0.502985   
O129     O      0.324810000000     0.963700000000     0.897900000000    -0.367291   
O130     O      0.300440000000     0.944550000000     0.973400000000    -0.362874   
O131     O      0.467300000000     0.831450000000     0.922560000000    -0.382302   
O132     O      0.563870000000     0.895770000000     0.924420000000    -0.368329   
O133     O      0.316100000000     0.821730000000     0.991620000000    -0.366612   
O134     O      0.306270000000     0.873930000000     0.039270000000    -0.361813   
O135     O      0.496410000000     0.013350000000     0.830070000000    -0.368452   
O136     O      0.569660000000     0.993040000000     0.854220000000    -0.371034   
O137     O      0.373460000000     0.940040000000     0.825910000000    -0.340824   
O138     O      0.429540000000     0.071580000000     0.856590000000    -0.532701   
O139     O      0.349820000000     0.794530000000     0.917610000000    -0.517802   
O140     O      0.418970000000     0.790010000000     0.024500000000    -0.358847   
O141     O      0.380870000000     0.921630000000     0.951070000000    -0.493479   
O142     O      0.467950000000     0.930050000000     0.909780000000    -0.623503   
O143     O      0.628940000000     0.127400000000     0.944650000000    -0.373215   
O144     O      0.655460000000     0.068700000000     0.923220000000    -0.356418   
O145     O      0.466010000000     0.934680000000     0.128450000000    -0.374436   
O146     O      0.394090000000     0.956900000000     0.105020000000    -0.366671   
O147     O      0.628990000000     0.969530000000     0.061450000000    -0.376532   
O148     O      0.656120000000     0.992750000000     0.986770000000    -0.366814   
O149     O      0.492930000000     0.097380000000     0.048150000000    -0.363747   
O150     O      0.395820000000     0.048820000000     0.032210000000    -0.372643   
O151     O      0.616220000000     0.152310000000     0.030340000000    -0.520872   
O152     O      0.520460000000     0.152630000000     0.943660000000    -0.364303   
O153     O      0.587630000000     0.003020000000     0.129460000000    -0.335786   
O154     O      0.521600000000     0.868560000000     0.099960000000    -0.524959   
O155     O      0.577170000000     0.023560000000     0.006780000000    -0.630265   
O156     O      0.490820000000     0.013550000000     0.046920000000    -0.481555   
O157     O      0.528710000000     0.040940000000     0.918980000000    -0.494026   
O158     O      0.428480000000     0.901100000000     0.038250000000    -0.625461   
O159     O      0.438030000000     0.033050000000     0.959570000000    -0.620806   
O160     O      0.518280000000     0.909350000000     0.996790000000    -0.488576   
O161     O      0.529870000000     0.152520000000     0.423330000000    -0.373791   
O162     O      0.567030000000     0.165330000000     0.498030000000    -0.372237   
O163     O      0.335610000000     0.887260000000     0.466320000000    -0.39085    
O164     O      0.381080000000     0.841480000000     0.454530000000    -0.354354   
O165     O      0.401620000000     0.010430000000     0.569310000000    -0.396261   
O166     O      0.471440000000     0.094210000000     0.547590000000    -0.353846   
O167     O      0.456300000000     0.007000000000     0.335340000000    -0.36692    
O168     O      0.448890000000     0.923650000000     0.351200000000    -0.380098   
O169     O      0.398430000000     0.061160000000     0.389470000000    -0.362197   
O170     O      0.529040000000     0.117990000000     0.337060000000    -0.520297   
O171     O      0.313470000000     0.960020000000     0.501970000000    -0.522596   
O172     O      0.365160000000     0.886550000000     0.575160000000    -0.357687   
O173     O      0.464110000000     0.048120000000     0.482700000000    -0.494122   
O174     O      0.427320000000     0.967190000000     0.433230000000    -0.626385   
O175     O      0.639630000000     0.979130000000     0.405570000000    -0.388499   
O176     O      0.551570000000     0.902730000000     0.398800000000    -0.355279   
O177     O      0.580210000000     0.993390000000     0.626960000000    -0.370155   
O178     O      0.578040000000     0.072830000000     0.612510000000    -0.382906   
O179     O      0.524030000000     0.852440000000     0.535930000000    -0.367819   
O180     O      0.491460000000     0.842440000000     0.460000000000    -0.373356   
O181     O      0.690660000000     0.105220000000     0.503780000000    -0.365538   
O182     O      0.652880000000     0.155660000000     0.518750000000    -0.35065    
O183     O      0.728040000000     0.054780000000     0.451310000000    -0.522434   
O184     O      0.656100000000     0.104090000000     0.379640000000    -0.374619   
O185     O      0.634330000000     0.938470000000     0.583770000000    -0.342013   
O186     O      0.489760000000     0.877820000000     0.619320000000    -0.528471   
O187     O      0.569030000000     0.951590000000     0.479680000000    -0.631325   
O188     O      0.606710000000     0.032260000000     0.527660000000    -0.47633    
O189     O      0.540610000000     0.007970000000     0.401560000000    -0.490463   
O190     O      0.492290000000     0.989780000000     0.560370000000    -0.632925   
O191     O      0.578650000000     0.089050000000     0.451050000000    -0.628998   
O192     O      0.455010000000     0.907920000000     0.511250000000    -0.487127   
O193     O      0.462000000000     0.323300000000     0.055500000000    -0.372183   
O194     O      0.439600000000     0.304320000000     0.979830000000    -0.359878   
O195     O      0.317330000000     0.461730000000     0.032440000000    -0.396661   
O196     O      0.376980000000     0.549620000000     0.018740000000    -0.353037   
O197     O      0.291970000000     0.333700000000     0.951940000000    -0.398386   
O198     O      0.354000000000     0.309770000000     0.926220000000    -0.361512   
O199     O      0.488570000000     0.466450000000     0.126210000000    -0.379558   
O200     O      0.482520000000     0.543570000000     0.108380000000    -0.382525   
O201     O      0.383250000000     0.348840000000     0.111290000000    -0.356745   
O202     O      0.534010000000     0.396980000000     0.119060000000    -0.521434   
O203     O      0.246180000000     0.363050000000     0.006200000000    -0.516618   
O204     O      0.303460000000     0.453150000000     0.910230000000    -0.358321   
O205     O      0.397570000000     0.374870000000     0.000250000000    -0.502943   
O206     O      0.408620000000     0.454050000000     0.045400000000    -0.623836   
O207     O      0.630520000000     0.595500000000     0.024980000000    -0.383027   
O208     O      0.569340000000     0.629770000000     0.025560000000    -0.356029   
O209     O      0.444470000000     0.474530000000     0.831590000000    -0.384376   
O210     O      0.450110000000     0.397160000000     0.851250000000    -0.375476   
O211     O      0.469550000000     0.616870000000     0.906810000000    -0.360115   
O212     O      0.484690000000     0.631860000000     0.983450000000    -0.360274   
O213     O      0.594610000000     0.473690000000     0.919350000000    -0.366246   
O214     O      0.546480000000     0.385710000000     0.932580000000    -0.358961   
O215     O      0.671080000000     0.580720000000     0.940820000000    -0.532162   
O216     O      0.640880000000     0.489770000000     0.040040000000    -0.371166   
O217     O      0.539630000000     0.589300000000     0.846190000000    -0.352624   
O218     O      0.387310000000     0.537820000000     0.844230000000    -0.520923   
O219     O      0.528320000000     0.561330000000     0.959220000000    -0.631338   
O220     O      0.517060000000     0.482590000000     0.916430000000    -0.471012   
O221     O      0.528750000000     0.503170000000     0.044480000000    -0.489115   
O222     O      0.396920000000     0.433350000000     0.914710000000    -0.62173    
O223     O      0.521930000000     0.423880000000     0.001190000000    -0.62961    
O224     O      0.404140000000     0.514060000000     0.959020000000    -0.485467   
O225     O      0.527420000000     0.356000000000     0.518400000000    -0.373924   
O226     O      0.521710000000     0.365300000000     0.439410000000    -0.377957   
O227     O      0.329570000000     0.429440000000     0.532210000000    -0.389654   
O228     O      0.381090000000     0.518330000000     0.541240000000    -0.343854   
O229     O      0.355310000000     0.351010000000     0.423870000000    -0.389042   
O230     O      0.434370000000     0.362630000000     0.388420000000    -0.353906   
O231     O      0.512790000000     0.447880000000     0.628980000000    -0.378069   
O232     O      0.486860000000     0.513760000000     0.623740000000    -0.38839    
O233     O      0.464210000000     0.344200000000     0.598040000000    -0.338422   
O234     O      0.612470000000     0.436640000000     0.589780000000    -0.525956   
O235     O      0.311770000000     0.332950000000     0.508730000000    -0.520065   
O236     O      0.312390000000     0.432000000000     0.421300000000    -0.35945    
O237     O      0.460480000000     0.399680000000     0.483820000000    -0.503383   
O238     O      0.443490000000     0.448210000000     0.545280000000    -0.627753   
O239     O      0.644900000000     0.649610000000     0.519960000000    -0.391193   
O240     O      0.569300000000     0.636330000000     0.561060000000    -0.354437   
O241     O      0.515320000000     0.558990000000     0.336910000000    -0.376003   
O242     O      0.530500000000     0.486710000000     0.339640000000    -0.3811     
O243     O      0.453950000000     0.619890000000     0.446180000000    -0.373533   
O244     O      0.457390000000     0.611350000000     0.525110000000    -0.371066   
O245     O      0.661620000000     0.559140000000     0.418810000000    -0.367289   
O246     O      0.621460000000     0.471130000000     0.411680000000    -0.364233   
O247     O      0.711830000000     0.647160000000     0.462680000000    -0.51556    
O248     O      0.686560000000     0.554600000000     0.545270000000    -0.364091   
O249     O      0.527470000000     0.651710000000     0.371370000000    -0.339584   
O250     O      0.391590000000     0.540850000000     0.363040000000    -0.526833   
O251     O      0.544020000000     0.590510000000     0.476640000000    -0.633085   
O252     O      0.559880000000     0.542070000000     0.417160000000    -0.481272   
O253     O      0.565490000000     0.524160000000     0.551510000000    -0.495786   
O254     O      0.438960000000     0.465980000000     0.410080000000    -0.630112   
O255     O      0.580980000000     0.473720000000     0.488460000000    -0.624134   
O256     O      0.423470000000     0.514530000000     0.474410000000    -0.485571   
Zr1      Zr     0.089130000000     0.007240000000     0.960860000000     1.39504    
Zr2      Zr     0.957640000000     0.032460000000     0.906930000000     1.37165    
Zr3      Zr     0.987360000000     0.899400000000     0.055320000000     1.37255    
Zr4      Zr     0.855530000000     0.924140000000     0.003380000000     1.37843    
Zr5      Zr     0.003970000000     0.040600000000     0.035870000000     1.37381    
Zr6      Zr     0.942220000000     0.892060000000     0.926330000000     1.37018    
Zr7      Zr     0.959630000000     0.886600000000     0.483220000000     1.37288    
Zr8      Zr     0.953870000000     0.998090000000     0.390180000000     1.36084    
Zr9      Zr     0.065970000000     0.999230000000     0.565730000000     1.37596    
Zr10     Zr     0.059880000000     0.109720000000     0.473150000000     1.3875     
Zr11     Zr     0.102300000000     0.011250000000     0.438580000000     1.35345    
Zr12     Zr     0.918790000000     0.987110000000     0.516750000000     1.36203    
Zr13     Zr     0.996790000000     0.406420000000     0.049810000000     1.38049    
Zr14     Zr     0.856500000000     0.390330000000     0.972360000000     1.38403    
Zr15     Zr     0.094300000000     0.544550000000     0.977870000000     1.38388    
Zr16     Zr     0.951510000000     0.528460000000     0.900460000000     1.38596    
Zr17     Zr     0.993050000000     0.415380000000     0.917010000000     1.35894    
Zr18     Zr     0.957340000000     0.520280000000     0.031680000000     1.35801    
Zr19     Zr     0.990500000000     0.425440000000     0.553670000000     1.37877    
Zr20     Zr     0.886090000000     0.451390000000     0.457290000000     1.39429    
Zr21     Zr     0.125870000000     0.541820000000     0.490750000000     1.38692    
Zr22     Zr     0.020440000000     0.566940000000     0.393200000000     1.38102    
Zr23     Zr     0.006950000000     0.425400000000     0.425730000000     1.36739    
Zr24     Zr     0.004360000000     0.567990000000     0.521080000000     1.35695    
Zr25     Zr     0.429230000000     0.990410000000     0.892120000000     1.37149    
Zr26     Zr     0.418030000000     0.860970000000     0.968920000000     1.36972    
Zr27     Zr     0.538050000000     0.082560000000     0.986870000000     1.36564    
Zr28     Zr     0.528090000000     0.952220000000     0.064490000000     1.38043    
Zr29     Zr     0.390570000000     0.962720000000     0.020200000000     1.35584    
Zr30     Zr     0.568110000000     0.980740000000     0.938750000000     1.35417    
Zr31     Zr     0.489810000000     0.057460000000     0.405180000000     1.37732    
Zr32     Zr     0.404860000000     0.957630000000     0.512500000000     1.38553    
Zr33     Zr     0.629020000000     0.040630000000     0.448550000000     1.37746    
Zr34     Zr     0.544560000000     0.941940000000     0.557380000000     1.37249    
Zr35     Zr     0.553210000000     0.080080000000     0.529830000000     1.36562    
Zr36     Zr     0.479230000000     0.917910000000     0.432720000000     1.36207    
Zr37     Zr     0.465360000000     0.409760000000     0.063730000000     1.38763    
Zr38     Zr     0.343470000000     0.421340000000     0.978920000000     1.38791    
Zr39     Zr     0.584510000000     0.516960000000     0.981060000000     1.3769     
Zr40     Zr     0.460420000000     0.527480000000     0.895950000000     1.38754    
Zr41     Zr     0.453560000000     0.387910000000     0.936100000000     1.35974    
Zr42     Zr     0.471990000000     0.548300000000     0.023760000000     1.35968    
Zr43     Zr     0.522040000000     0.428440000000     0.551940000000     1.38097    
Zr44     Zr     0.383210000000     0.419980000000     0.475820000000     1.39255    
Zr45     Zr     0.621530000000     0.568780000000     0.485760000000     1.37756    
Zr46     Zr     0.480450000000     0.561060000000     0.410340000000     1.38313    
Zr47     Zr     0.518210000000     0.446410000000     0.418850000000     1.36599    
Zr48     Zr     0.486690000000     0.544570000000     0.542220000000     1.35571    


