data_structure

_audit_creation_method RASPA-1.0
_audit_creation_date 2023-6-4
_audit_author_name 'Poobodin Mano'

_cell_length_a    26.0867
_cell_length_b    28.6483
_cell_length_c    29.001
_cell_angle_alpha 82.7391
_cell_angle_beta  96.3362
_cell_angle_gamma 119.44
_cell_volume      18694.3

_symmetry_cell_setting          triclinic
_symmetry_space_group_name_Hall 'P 1'
_symmetry_space_group_name_H-M  'P 1'
_symmetry_Int_Tables_number     1

_symmetry_equiv_pos_as_xyz 'x,y,z'

loop_
_atom_site_label
_atom_site_type_symbol
_atom_site_fract_x
_atom_site_fract_y
_atom_site_fract_z
_atom_site_charge
C1       C      0.167030000000     0.127120000000     0.996630000000     0.395898   
C2       C      0.927210000000     0.935420000000     0.826910000000     0.387633   
C3       C      0.031100000000     0.157550000000     0.959480000000     0.396522   
C4       C      0.082340000000     0.893060000000     0.916780000000     0.402204   
C5       C      0.937780000000     0.788830000000     0.018660000000     0.389057   
C6       C      0.902890000000     0.039170000000     0.074260000000     0.385978   
C7       C      0.807180000000     0.816510000000     0.969660000000     0.400562   
C8       C      0.065360000000     0.019320000000     0.142940000000     0.393517   
C9       C      0.021200000000     0.863180000000     0.413440000000     0.383962   
C10      C      0.796360000000     0.958570000000     0.435710000000     0.376114   
C11      C      0.040800000000     0.007490000000     0.325170000000     0.39608    
C12      C      0.817860000000     0.844350000000     0.557270000000     0.386395   
C13      C      0.932370000000     0.943750000000     0.640470000000     0.389871   
C14      C      0.177820000000     0.128000000000     0.432200000000     0.384624   
C15      C      0.936170000000     0.108670000000     0.530790000000     0.399156   
C16      C      0.190080000000     0.016660000000     0.526880000000     0.382624   
C17      C      0.040000000000     0.344750000000     0.951540000000     0.396418   
C18      C      0.839300000000     0.462700000000     0.056480000000     0.384682   
C19      C      0.851020000000     0.313950000000     0.907050000000     0.395952   
C20      C      0.024420000000     0.465750000000     0.142870000000     0.39413    
C21      C      0.128840000000     0.632300000000     0.060230000000     0.390215   
C22      C      0.956490000000     0.495170000000     0.809950000000     0.388927   
C23      C      0.966660000000     0.630320000000     0.997750000000     0.395828   
C24      C      0.133760000000     0.507970000000     0.883440000000     0.38179    
C25      C      0.955700000000     0.306330000000     0.522380000000     0.383209   
C26      C      0.830340000000     0.528330000000     0.471040000000     0.382818   
C27      C      0.838120000000     0.319680000000     0.415590000000     0.398481   
C28      C      0.930340000000     0.503300000000     0.624380000000     0.38805    
C29      C      0.121800000000     0.647360000000     0.544750000000     0.384799   
C30      C      0.037260000000     0.469350000000     0.329410000000     0.393198   
C31      C      0.011640000000     0.667180000000     0.430100000000     0.385327   
C32      C      0.132570000000     0.454960000000     0.459490000000     0.36782    
C33      C      0.292680000000     0.931580000000     0.940150000000     0.386104   
C34      C      0.545580000000     0.853250000000     0.918060000000     0.391928   
C35      C      0.318820000000     0.820170000000     0.043330000000     0.382514   
C36      C      0.545810000000     0.006400000000     0.821760000000     0.394201   
C37      C      0.664830000000     0.121330000000     0.906740000000     0.38809    
C38      C      0.450610000000     0.952690000000     0.141250000000     0.389711   
C39      C      0.692740000000     0.004290000000     0.027120000000     0.383663   
C40      C      0.452910000000     0.090700000000     0.044920000000     0.379398   
C41      C      0.536030000000     0.172250000000     0.456000000000     0.392065   
C42      C      0.313770000000     0.832900000000     0.479390000000     0.376818   
C43      C      0.406490000000     0.063310000000     0.564810000000     0.391815   
C44      C      0.432400000000     0.946400000000     0.332070000000     0.394203   
C45      C      0.585060000000     0.914850000000     0.405150000000     0.395491   
C46      C      0.583640000000     0.041550000000     0.642320000000     0.390592   
C47      C      0.488830000000     0.817060000000     0.515310000000     0.395146   
C48      C      0.686700000000     0.149140000000     0.499120000000     0.384261   
C49      C      0.469150000000     0.294190000000     0.019280000000     0.384291   
C50      C      0.324540000000     0.505700000000     0.971980000000     0.390041   
C51      C      0.340810000000     0.305580000000     0.910470000000     0.400738   
C52      C      0.451120000000     0.493450000000     0.125020000000     0.395499   
C53      C      0.613050000000     0.630810000000     0.035610000000     0.379129   
C54      C      0.498890000000     0.439960000000     0.817750000000     0.394126   
C55      C      0.502890000000     0.648770000000     0.927640000000     0.37764    
C56      C      0.636070000000     0.444590000000     0.951980000000     0.371019   
C57      C      0.519500000000     0.345280000000     0.468190000000     0.409107   
C58      C      0.339980000000     0.474110000000     0.559430000000     0.380489   
C59      C      0.375270000000     0.325520000000     0.431150000000     0.360528   
C60      C      0.532990000000     0.494450000000     0.645580000000     0.397171   
C61      C      0.630420000000     0.656170000000     0.552960000000     0.390162   
C62      C      0.449900000000     0.499820000000     0.313310000000     0.393859   
C63      C      0.434180000000     0.627110000000     0.498270000000     0.397237   
C64      C      0.638500000000     0.526300000000     0.383840000000     0.380106   
C65      C      0.571190000000     0.466150000000     0.720860000000    -0.012802   
C66      C      0.501100000000     0.502960000000     0.718580000000    -0.0198412  
C67      C      0.528420000000     0.415530000000     0.750910000000    -0.014599   
C68      C      0.455710000000     0.448180000000     0.739090000000     0.0167465  
C69      C      0.406570000000     0.449450000000     0.758510000000     0.0429806  
C70      C      0.452990000000     0.457580000000     0.206030000000    -0.00896988 
C71      C      0.454880000000     0.547220000000     0.187510000000    -0.0179028  
C72      C      0.415410000000     0.446100000000     0.246180000000    -0.0132894  
C73      C      0.425480000000     0.537400000000     0.234280000000     0.00955006 
C74      C      0.448600000000     0.589850000000     0.253470000000     0.0565273  
C75      C      0.427450000000     0.705330000000     0.463230000000    -0.0127137  
C76      C      0.420510000000     0.683110000000     0.548540000000    -0.0150059  
C77      C      0.490160000000     0.750690000000     0.471260000000    -0.00933759 
C78      C      0.481990000000     0.731900000000     0.557370000000     0.00844232 
C79      C      0.485530000000     0.752870000000     0.602160000000     0.0548802  
C80      C      0.546190000000     0.276740000000     0.503660000000    -0.00988912 
C81      C      0.488680000000     0.264700000000     0.426100000000    -0.0169535  
C82      C      0.587820000000     0.263600000000     0.482270000000    -0.010538   
C83      C      0.530570000000     0.249780000000     0.406750000000     0.0106917  
C84      C      0.500850000000     0.216080000000     0.367580000000     0.052513   
C85      C      0.630470000000     0.027730000000     0.718560000000    -0.0109625  
C86      C      0.589890000000     0.090360000000     0.708850000000    -0.0191696  
C87      C      0.588260000000     0.993160000000     0.756830000000    -0.0140644  
C88      C      0.543100000000     0.055280000000     0.744290000000     0.0122153  
C89      C      0.531460000000     0.091500000000     0.768050000000     0.0508016  
C90      C      0.382800000000     0.916060000000     0.206520000000    -0.0128792  
C91      C      0.492350000000     0.953870000000     0.221110000000    -0.0182082  
C92      C      0.380490000000     0.930730000000     0.255860000000    -0.0150862  
C93      C      0.489830000000     0.978180000000     0.263650000000     0.0129236  
C94      C      0.542570000000     0.988280000000     0.294490000000     0.0499066  
C95      C      0.537390000000     0.736870000000     0.957720000000    -0.0165884  
C96      C      0.527640000000     0.729010000000     0.870710000000    -0.0197035  
C97      C      0.584900000000     0.794190000000     0.943020000000    -0.0106359  
C98      C      0.523590000000     0.781970000000     0.867790000000     0.00864899 
C99      C      0.541430000000     0.811900000000     0.822140000000     0.048112   
C100     C      0.461820000000     0.218750000000     0.077380000000    -0.0110361  
C101     C      0.424930000000     0.203080000000     0.995350000000    -0.0163562  
C102     C      0.479370000000     0.174110000000     0.078260000000    -0.0144371  
C103     C      0.440760000000     0.158660000000     0.995690000000     0.00675067 
C104     C      0.395010000000     0.118370000000     0.965490000000     0.0425555  
C105     C      0.726380000000     0.245130000000     0.475300000000    -0.0158006  
C106     C      0.791190000000     0.202970000000     0.476670000000    -0.0190124  
C107     C      0.732460000000     0.256930000000     0.422270000000    -0.00622821 
C108     C      0.798300000000     0.219190000000     0.423580000000     0.0102809  
C109     C      0.852150000000     0.225210000000     0.405890000000     0.0562962  
C110     C      0.264770000000     0.737030000000     0.511230000000    -0.0148093  
C111     C      0.218480000000     0.796610000000     0.514160000000    -0.0205159  
C112     C      0.229630000000     0.709550000000     0.555060000000    -0.0119074  
C113     C      0.159460000000     0.744250000000     0.523760000000     0.00951843 
C114     C      0.124360000000     0.754240000000     0.553690000000     0.0601248  
C115     C      0.746390000000     0.589380000000     0.392830000000    -0.00752627 
C116     C      0.709350000000     0.494270000000     0.376070000000    -0.0207438  
C117     C      0.802380000000     0.586570000000     0.414740000000    -0.0115788  
C118     C      0.740390000000     0.483960000000     0.420850000000     0.0196938  
C119     C      0.698240000000     0.451550000000     0.456780000000     0.0513225  
C120     C      0.289580000000     0.510650000000     0.503630000000    -0.00686168 
C121     C      0.237780000000     0.413450000000     0.533860000000    -0.012778   
C122     C      0.230630000000     0.509040000000     0.494560000000    -0.0141966  
C123     C      0.177210000000     0.408750000000     0.514850000000     0.00818934 
C124     C      0.144160000000     0.358470000000     0.491260000000     0.0560216  
C125     C      0.930880000000     0.552040000000     0.690270000000    -0.010816   
C126     C      0.878420000000     0.452840000000     0.695150000000    -0.017131   
C127     C      0.966920000000     0.550960000000     0.736070000000    -0.0189684  
C128     C      0.917560000000     0.448450000000     0.736810000000     0.0124279  
C129     C      0.880330000000     0.398350000000     0.765220000000     0.049537   
C130     C      0.088080000000     0.518660000000     0.257870000000    -0.0155687  
C131     C      0.038520000000     0.417130000000     0.268100000000    -0.0154553  
C132     C      0.052110000000     0.514680000000     0.212320000000    -0.00649012 
C133     C      0.050750000000     0.424100000000     0.215590000000     0.00970185 
C134     C      0.111560000000     0.436060000000     0.209940000000     0.0544675  
C135     C      0.817570000000     0.228540000000     0.868410000000    -0.0116856  
C136     C      0.746460000000     0.259130000000     0.889420000000    -0.0121946  
C137     C      0.766050000000     0.168690000000     0.876130000000    -0.0144647  
C138     C      0.703100000000     0.212400000000     0.861840000000     0.0107417  
C139     C      0.643740000000     0.206970000000     0.859910000000     0.0570927  
C140     C      0.223400000000     0.777490000000     0.082800000000    -0.0150124  
C141     C      0.273030000000     0.723660000000     0.066660000000    -0.0158959  
C142     C      0.162970000000     0.724560000000     0.079320000000    -0.0130648  
C143     C      0.227780000000     0.682220000000     0.100050000000     0.0124317  
C144     C      0.230200000000     0.631320000000     0.106280000000     0.0474524  
C145     C      0.792430000000     0.502540000000     0.000920000000    -0.00962232 
C146     C      0.736070000000     0.405460000000     0.033790000000    -0.00890127 
C147     C      0.733880000000     0.500940000000     0.986390000000    -0.011262   
C148     C      0.677180000000     0.403900000000     0.016610000000     0.00756227 
C149     C      0.636140000000     0.349080000000     0.002680000000     0.0481621  
C150     C      0.288340000000     0.565610000000     0.928190000000    -0.0137862  
C151     C      0.255880000000     0.473490000000     0.903980000000    -0.0138375  
C152     C      0.243620000000     0.564720000000     0.887510000000    -0.0117765  
C153     C      0.192740000000     0.462230000000     0.892480000000     0.0124069  
C154     C      0.169530000000     0.433030000000     0.850050000000     0.0517091  
C155     C      0.734840000000     0.710140000000     0.570560000000    -0.0103528  
C156     C      0.664780000000     0.748800000000     0.572180000000    -0.0190635  
C157     C      0.779250000000     0.754610000000     0.599600000000    -0.010712   
C158     C      0.717790000000     0.797690000000     0.595130000000     0.0077533  
C159     C      0.712640000000     0.846820000000     0.583160000000     0.059895   
C160     C      0.274940000000     0.184140000000     0.467390000000    -0.00625831 
C161     C      0.261930000000     0.189320000000     0.381310000000    -0.0180813  
C162     C      0.298500000000     0.243450000000     0.467960000000    -0.0139264  
C163     C      0.303360000000     0.252320000000     0.379780000000     0.00608032 
C164     C      0.348170000000     0.267970000000     0.345640000000     0.0561554  
C165     C      0.633720000000     0.862810000000     0.432930000000    -0.014587   
C166     C      0.656250000000     0.914540000000     0.357390000000    -0.0117876  
C167     C      0.692750000000     0.903710000000     0.455670000000    -0.014564   
C168     C      0.717340000000     0.957380000000     0.376100000000     0.0061096  
C169     C      0.757920000000     0.974330000000     0.338220000000     0.062894   
C170     C      0.330920000000     0.070520000000     0.602700000000    -0.00926792 
C171     C      0.353160000000     0.104460000000     0.521370000000    -0.0176673  
C172     C      0.268720000000     0.026050000000     0.587470000000    -0.0151263  
C173     C      0.296280000000     0.055380000000     0.504140000000     0.00924633 
C174     C      0.279350000000     0.067790000000     0.456030000000     0.0521076  
C175     C      0.967140000000     0.725060000000     0.423580000000    -0.00982992 
C176     C      0.068700000000     0.760510000000     0.392930000000    -0.017891   
C177     C      0.968400000000     0.770500000000     0.389400000000    -0.0167092  
C178     C      0.079280000000     0.817580000000     0.401990000000     0.00849587 
C179     C      0.108820000000     0.832230000000     0.448330000000     0.0478732  
C180     C      0.974640000000     0.236890000000     0.499180000000    -0.0165461  
C181     C      0.929530000000     0.221150000000     0.575680000000    -0.0222253  
C182     C      0.927630000000     0.181860000000     0.487430000000    -0.00394596 
C183     C      0.895140000000     0.158750000000     0.568510000000     0.00990389 
C184     C      0.897080000000     0.127500000000     0.612520000000     0.048119   
C185     C      0.904530000000     0.966300000000     0.748630000000    -0.0107026  
C186     C      0.940590000000     0.897210000000     0.761110000000    -0.0212809  
C187     C      0.874360000000     0.943420000000     0.702360000000    -0.0147801  
C188     C      0.911590000000     0.878450000000     0.713040000000     0.0125258  
C189     C      0.940430000000     0.853320000000     0.692580000000     0.0585728  
C190     C      0.107200000000     0.001330000000     0.220260000000    -0.0107196  
C191     C      0.085240000000     0.076940000000     0.206750000000    -0.0176994  
C192     C      0.068720000000     0.977760000000     0.262190000000    -0.0128896  
C193     C      0.042760000000     0.053730000000     0.246450000000     0.0137166  
C194     C      0.047460000000     0.099490000000     0.268690000000     0.0516962  
C195     C      0.719670000000     0.689150000000     0.040880000000    -0.00730639 
C196     C      0.657940000000     0.697130000000     0.971270000000    -0.0148632  
C197     C      0.765310000000     0.747780000000     0.030000000000    -0.0151474  
C198     C      0.703550000000     0.755980000000     0.960990000000     0.0100563  
C199     C      0.703930000000     0.769150000000     0.909970000000     0.0466154  
C200     C      0.194910000000     0.209410000000     0.943080000000    -0.0131715  
C201     C      0.253920000000     0.159850000000     0.950600000000    -0.0195627  
C202     C      0.234150000000     0.238630000000     0.901470000000    -0.0108003  
C203     C      0.308080000000     0.215290000000     0.947200000000     0.0109633  
C204     C      0.323060000000     0.234510000000     0.994430000000     0.0608936  
C205     C      0.814330000000     0.019530000000     0.112650000000    -0.00782168 
C206     C      0.856680000000     0.096650000000     0.054300000000    -0.0223995  
C207     C      0.761600000000     0.987130000000     0.080350000000    -0.0139461  
C208     C      0.800340000000     0.070540000000     0.020840000000     0.0108818  
C209     C      0.783240000000     0.112420000000     0.005600000000     0.0416259  
C210     C      0.190960000000     0.883430000000     0.966640000000    -0.0107442  
C211     C      0.212220000000     0.927700000000     0.883830000000    -0.0179875  
C212     C      0.129940000000     0.841270000000     0.947610000000    -0.0117974  
C213     C      0.149310000000     0.884840000000     0.868510000000     0.0119152  
C214     C      0.126060000000     0.905570000000     0.827070000000     0.0457273  
C215     C      0.988620000000     0.705450000000     0.044700000000    -0.0163063  
C216     C      0.929180000000     0.692390000000     0.967330000000    -0.0187646  
C217     C      0.942800000000     0.714010000000     0.065970000000    -0.0124976  
C218     C      0.882950000000     0.695840000000     0.992240000000     0.0153888  
C219     C      0.842930000000     0.707420000000     0.958920000000     0.0527609  
C220     C      0.058750000000     0.292030000000     0.900130000000    -0.0108375  
C221     C      0.102790000000     0.304290000000     0.979920000000    -0.0129299  
C222     C      0.027540000000     0.230760000000     0.909000000000    -0.0115062  
C223     C      0.071590000000     0.244410000000     0.994150000000     0.00875928 
C224     C      0.114600000000     0.234240000000     0.025350000000     0.0591299  
H1       H      0.032750000000     0.980030000000     0.878560000000     0.19777    
H2       H      0.924750000000     0.052690000000     0.979090000000     0.196477   
H3       H      0.896620000000     0.854500000000     0.027990000000     0.199234   
H4       H      0.111010000000     0.016530000000     0.060410000000     0.202705   
H5       H      0.896470000000     0.079330000000     0.892350000000     0.131481   
H6       H      0.819320000000     0.995380000000     0.944780000000     0.200409   
H7       H      0.817220000000     0.871560000000     0.087730000000     0.131099   
H8       H      0.914820000000     0.850580000000     0.134390000000     0.186318   
H9       H      0.119590000000     0.919080000000     0.065050000000     0.129183   
H10      H      0.215060000000     0.009520000000     0.007140000000     0.19902    
H11      H      0.134660000000     0.092610000000     0.888080000000     0.140346   
H12      H      0.048580000000     0.076340000000     0.823090000000     0.196668   
H13      H      0.977190000000     0.853940000000     0.159950000000     0.20096    
H14      H      0.229100000000     0.031160000000     0.951230000000     0.212316   
H15      H      0.033930000000     0.124810000000     0.832840000000     0.202679   
H16      H      0.767280000000     0.950040000000     0.979610000000     0.211407   
H17      H      0.850670000000     0.902020000000     0.455870000000     0.190566   
H18      H      0.053960000000     0.075270000000     0.394030000000     0.19834    
H19      H      0.008620000000     0.053890000000     0.576700000000     0.194864   
H20      H      0.059400000000     0.908520000000     0.514400000000     0.19436    
H21      H      0.959160000000     0.099150000000     0.368570000000     0.137992   
H22      H      0.053030000000     0.198080000000     0.438150000000     0.21326    
H23      H      0.134550000000     0.144550000000     0.558670000000     0.134813   
H24      H      0.142420000000     0.069660000000     0.626450000000     0.198172   
H25      H      0.052370000000     0.881540000000     0.601250000000     0.140028   
H26      H      0.993200000000     0.804450000000     0.518050000000     0.201531   
H27      H      0.836320000000     0.807690000000     0.430830000000     0.124132   
H28      H      0.852400000000     0.890250000000     0.353370000000     0.188702   
H29      H      0.079630000000     0.043980000000     0.653670000000     0.199088   
H30      H      0.951610000000     0.797320000000     0.561190000000     0.204957   
H31      H      0.873730000000     0.939910000000     0.310570000000     0.210971   
H32      H      0.073370000000     0.173040000000     0.398990000000     0.198145   
H33      H      0.927570000000     0.413710000000     0.077950000000     0.200466   
H34      H      0.885270000000     0.439410000000     0.888830000000     0.197379   
H35      H      0.054810000000     0.613420000000     0.976840000000     0.197121   
H36      H      0.095930000000     0.449610000000     0.966170000000     0.205032   
H37      H      0.765700000000     0.379740000000     0.926710000000     0.142845   
H38      H      0.857850000000     0.566200000000     0.892220000000     0.204914   
H39      H      0.059610000000     0.643970000000     0.880490000000     0.127854   
H40      H      0.179620000000     0.662670000000     0.924010000000     0.190136   
H41      H      0.180010000000     0.520270000000     0.035390000000     0.146698   
H42      H      0.138130000000     0.419720000000     0.062350000000     0.199929   
H43      H      0.911950000000     0.313890000000     0.062740000000     0.130551   
H44      H      0.802590000000     0.308090000000     0.051240000000     0.193732   
H45      H      0.228630000000     0.648560000000     0.955810000000     0.197591   
H46      H      0.097310000000     0.382760000000     0.107240000000     0.21332    
H47      H      0.756050000000     0.303310000000     0.005270000000     0.198483   
H48      H      0.842460000000     0.512080000000     0.865290000000     0.202863   
H49      H      0.872390000000     0.458680000000     0.541950000000     0.200869   
H50      H      0.926040000000     0.447720000000     0.367470000000     0.191217   
H51      H      0.081480000000     0.615980000000     0.463600000000     0.196436   
H52      H      0.049520000000     0.417080000000     0.528900000000     0.203596   
H53      H      0.811120000000     0.435020000000     0.352880000000     0.13326    
H54      H      0.929770000000     0.580090000000     0.328690000000     0.205695   
H55      H      0.133140000000     0.626980000000     0.378040000000     0.128733   
H56      H      0.208320000000     0.616560000000     0.462800000000     0.18959    
H57      H      0.131190000000     0.508720000000     0.600900000000     0.145014   
H58      H      0.034160000000     0.393560000000     0.623940000000     0.201673   
H59      H      0.828630000000     0.342250000000     0.563610000000     0.129769   
H60      H      0.750470000000     0.367320000000     0.490570000000     0.193566   
H61      H      0.228660000000     0.608020000000     0.518550000000     0.19848    
H62      H      0.011820000000     0.425920000000     0.653890000000     0.206896   
H63      H      0.732450000000     0.369910000000     0.433590000000     0.195346   
H64      H      0.944970000000     0.541400000000     0.300200000000     0.198045   
H65      H      0.481060000000     0.905740000000     0.889100000000     0.199473   
H66      H      0.441080000000     0.883700000000     0.073360000000     0.195343   
H67      H      0.635780000000     0.062350000000     0.006480000000     0.198091   
H68      H      0.418470000000     0.039600000000     0.950940000000     0.204714   
H69      H      0.450070000000     0.798680000000     0.065600000000     0.133981   
H70      H      0.568250000000     0.873960000000     0.100600000000     0.205395   
H71      H      0.626990000000     0.073900000000     0.099610000000     0.13114    
H72      H      0.646540000000     0.171590000000     0.024600000000     0.192806   
H73      H      0.496430000000     0.115040000000     0.892530000000     0.150686   
H74      H      0.394660000000     0.055120000000     0.859510000000     0.203302   
H75      H      0.344910000000     0.873120000000     0.859790000000     0.137425   
H76      H      0.359350000000     0.796940000000     0.907170000000     0.190027   
H77      H      0.609990000000     0.200310000000     0.993240000000     0.209588   
H78      H      0.403660000000     0.031910000000     0.812660000000     0.211948   
H79      H      0.359710000000     0.752190000000     0.950120000000     0.19955    
H80      H      0.555640000000     0.896030000000     0.146580000000     0.203663   
H81      H      0.371850000000     0.941310000000     0.422140000000     0.202917   
H82      H      0.469380000000     0.988240000000     0.600400000000     0.200983   
H83      H      0.568900000000     0.919540000000     0.491420000000     0.203715   
H84      H      0.587280000000     0.113090000000     0.441880000000     0.198696   
H85      H      0.341630000000     0.852700000000     0.582750000000     0.14205    
H86      H      0.438450000000     0.843980000000     0.628680000000     0.213047   
H87      H      0.645980000000     0.959320000000     0.590560000000     0.137417   
H88      H      0.702400000000     0.010250000000     0.517240000000     0.198235   
H89      H      0.625310000000     0.094730000000     0.373400000000     0.128427   
H90      H      0.548660000000     0.126990000000     0.340180000000     0.194768   
H91      H      0.382280000000     0.075600000000     0.403960000000     0.151634   
H92      H      0.264410000000     0.931500000000     0.496630000000     0.208984   
H93      H      0.729860000000     0.034680000000     0.464740000000     0.21262    
H94      H      0.481270000000     0.096510000000     0.313890000000     0.213286   
H95      H      0.267020000000     0.915610000000     0.553930000000     0.207053   
H96      H      0.477460000000     0.894140000000     0.663170000000     0.20739    
H97      H      0.374700000000     0.438510000000     0.043410000000     0.192205   
H98      H      0.416540000000     0.424100000000     0.869800000000     0.215841   
H99      H      0.571440000000     0.599330000000     0.954150000000     0.192133   
H100     H      0.560290000000     0.409520000000     0.021810000000     0.200477   
H101     H      0.298060000000     0.410230000000     0.858950000000     0.151055   
H102     H      0.461380000000     0.565270000000     0.792870000000     0.207731   
H103     H      0.612680000000     0.626860000000     0.871690000000     0.133896   
H104     H      0.697100000000     0.609100000000     0.940140000000     0.204272   
H105     H      0.633260000000     0.500280000000     0.091400000000     0.147453   
H106     H      0.558080000000     0.394280000000     0.114930000000     0.195836   
H107     H      0.340150000000     0.342220000000     0.076540000000     0.130852   
H108     H      0.255610000000     0.338400000000     0.999430000000     0.19828    
H109     H      0.730780000000     0.599680000000     0.989810000000     0.197629   
H110     H      0.514770000000     0.396730000000     0.151950000000     0.205658   
H111     H      0.234060000000     0.336460000000     0.942750000000     0.199329   
H112     H      0.407620000000     0.550160000000     0.828040000000     0.213796   
H113     H      0.436890000000     0.435300000000     0.584610000000     0.201039   
H114     H      0.385070000000     0.444760000000     0.394710000000     0.196051   
H115     H      0.545670000000     0.630120000000     0.472870000000     0.194759   
H116     H      0.603490000000     0.471350000000     0.469340000000     0.215064   
H117     H      0.279810000000     0.367850000000     0.426160000000     0.134311   
H118     H      0.326260000000     0.510230000000     0.381190000000     0.203205   
H119     H      0.546620000000     0.645030000000     0.368110000000     0.136286   
H120     H      0.657630000000     0.680430000000     0.410900000000     0.190926   
H121     H      0.722760000000     0.597750000000     0.507040000000     0.143096   
H122     H      0.631600000000     0.417660000000     0.585030000000     0.208088   
H123     H      0.441670000000     0.337660000000     0.583440000000     0.133881   
H124     H      0.304320000000     0.317760000000     0.556860000000     0.195931   
H125     H      0.714560000000     0.680060000000     0.443440000000     0.199547   
H126     H      0.662130000000     0.483670000000     0.569260000000     0.209331   
H127     H      0.258660000000     0.316570000000     0.511260000000     0.198152   
H128     H      0.357270000000     0.577000000000     0.369650000000     0.208705   
H129     H      0.502310000000     0.382100000000     0.728140000000     0.0453817  
H130     H      0.595010000000     0.455040000000     0.698710000000     0.0447459  
H131     H      0.434770000000     0.420880000000     0.710500000000     0.0358823  
H132     H      0.478710000000     0.523090000000     0.696600000000     0.0473873  
H133     H      0.605050000000     0.495270000000     0.744570000000     0.0429245  
H134     H      0.527840000000     0.530190000000     0.746180000000     0.0531745  
H135     H      0.554000000000     0.402460000000     0.777470000000     0.0441904  
H136     H      0.368280000000     0.428680000000     0.233520000000     0.0424381  
H137     H      0.437610000000     0.418130000000     0.192070000000     0.0425377  
H138     H      0.377340000000     0.521640000000     0.226570000000     0.040406   
H139     H      0.435530000000     0.566730000000     0.161070000000     0.0476142  
H140     H      0.499950000000     0.473350000000     0.218660000000     0.0425806  
H141     H      0.503060000000     0.575480000000     0.191690000000     0.0464068  
H142     H      0.418690000000     0.414730000000     0.271130000000     0.0474659  
H143     H      0.521980000000     0.735190000000     0.472480000000     0.0341582  
H144     H      0.421700000000     0.689580000000     0.428830000000     0.0433467  
H145     H      0.515370000000     0.718070000000     0.560320000000     0.0443292  
H146     H      0.410770000000     0.650210000000     0.576790000000     0.0485239  
H147     H      0.395390000000     0.720390000000     0.462960000000     0.0454254  
H148     H      0.385970000000     0.695230000000     0.548600000000     0.0363127  
H149     H      0.501900000000     0.781680000000     0.441290000000     0.050831   
H150     H      0.624020000000     0.301250000000     0.466290000000     0.0336129  
H151     H      0.572160000000     0.306230000000     0.529870000000     0.0442565  
H152     H      0.567850000000     0.287470000000     0.391950000000     0.0356662  
H153     H      0.473170000000     0.285480000000     0.397670000000     0.0579006  
H154     H      0.511520000000     0.239840000000     0.521810000000     0.0483755  
H155     H      0.448890000000     0.227480000000     0.438450000000     0.0448076  
H156     H      0.609270000000     0.247840000000     0.510260000000     0.0429472  
H157     H      0.551360000000     0.956850000000     0.741770000000     0.0417684  
H158     H      0.641670000000     0.002420000000     0.700150000000     0.0482898  
H159     H      0.501520000000     0.027850000000     0.725310000000     0.0353197  
H160     H      0.573360000000     0.112890000000     0.683180000000     0.0468766  
H161     H      0.672470000000     0.058170000000     0.734960000000     0.0432039  
H162     H      0.630490000000     0.120870000000     0.726860000000     0.0472023  
H163     H      0.612790000000     0.979280000000     0.783710000000     0.0509987  
H164     H      0.374620000000     0.967010000000     0.251870000000     0.0393103  
H165     H      0.350580000000     0.923430000000     0.182740000000     0.0432074  
H166     H      0.491980000000     0.017790000000     0.252780000000     0.0414729  
H167     H      0.535420000000     0.982070000000     0.205670000000     0.0518139  
H168     H      0.368240000000     0.872340000000     0.208280000000     0.037818   
H169     H      0.491000000000     0.914440000000     0.231070000000     0.0442165  
H170     H      0.341010000000     0.897130000000     0.272520000000     0.034009   
H171     H      0.601880000000     0.818700000000     0.973650000000     0.0384992  
H172     H      0.498250000000     0.737510000000     0.968700000000     0.0566326  
H173     H      0.476360000000     0.769830000000     0.870620000000     0.0404806  
H174     H      0.493200000000     0.701410000000     0.846240000000     0.0445343  
H175     H      0.555860000000     0.721460000000     0.988420000000     0.0510719  
H176     H      0.571430000000     0.738000000000     0.859930000000     0.0515707  
H177     H      0.622560000000     0.793360000000     0.930010000000     0.0438455  
H178     H      0.527130000000     0.193750000000     0.071790000000     0.0456146  
H179     H      0.494670000000     0.250250000000     0.099810000000     0.0397918  
H180     H      0.484190000000     0.176560000000     0.980100000000     0.0466016  
H181     H      0.430280000000     0.222840000000     0.959340000000     0.0541917  
H182     H      0.417840000000     0.201430000000     0.091990000000     0.0495018  
H183     H      0.378300000000     0.183180000000     0.004380000000     0.0461261  
H184     H      0.473090000000     0.152840000000     0.113740000000     0.0369282  
H185     H      0.698120000000     0.221350000000     0.404490000000     0.0300236  
H186     H      0.682670000000     0.238240000000     0.483580000000     0.0403507  
H187     H      0.761540000000     0.185660000000     0.405170000000     0.0454983  
H188     H      0.792690000000     0.164840000000     0.486150000000     0.0468255  
H189     H      0.760220000000     0.280420000000     0.493500000000     0.0395475  
H190     H      0.828830000000     0.234400000000     0.496280000000     0.0493485  
H191     H      0.723380000000     0.290270000000     0.408610000000     0.0349273  
H192     H      0.232950000000     0.672770000000     0.567240000000     0.0378838  
H193     H      0.244550000000     0.710510000000     0.482250000000     0.035747   
H194     H      0.134530000000     0.733270000000     0.489600000000     0.0379021  
H195     H      0.208760000000     0.823130000000     0.487770000000     0.0509925  
H196     H      0.310420000000     0.743580000000     0.519270000000     0.0375245  
H197     H      0.236350000000     0.817700000000     0.546640000000     0.0396014  
H198     H      0.250300000000     0.736580000000     0.583780000000     0.0370578  
H199     H      0.832280000000     0.595260000000     0.386550000000     0.0357791  
H200     H      0.757910000000     0.616420000000     0.360200000000     0.0326047  
H201     H      0.758130000000     0.458960000000     0.411120000000     0.0213395  
H202     H      0.739430000000     0.508040000000     0.347020000000     0.0412225  
H203     H      0.734370000000     0.608760000000     0.417280000000     0.0336324  
H204     H      0.669690000000     0.456480000000     0.366010000000     0.0439086  
H205     H      0.826050000000     0.618800000000     0.439000000000     0.0403025  
H206     H      0.221010000000     0.521180000000     0.525890000000     0.0375679  
H207     H      0.321220000000     0.551130000000     0.515060000000     0.0457463  
H208     H      0.152320000000     0.404720000000     0.545210000000     0.0343341  
H209     H      0.231250000000     0.389340000000     0.568090000000     0.0400692  
H210     H      0.304010000000     0.505900000000     0.470660000000     0.0404298  
H211     H      0.251430000000     0.394690000000     0.510320000000     0.0367491  
H212     H      0.236480000000     0.539740000000     0.464990000000     0.0391018  
H213     H      0.012560000000     0.563260000000     0.727390000000     0.044848   
H214     H      0.957960000000     0.589040000000     0.667860000000     0.0434673  
H215     H      0.954180000000     0.444830000000     0.724360000000     0.0404879  
H216     H      0.860240000000     0.417050000000     0.674730000000     0.0483259  
H217     H      0.891240000000     0.553880000000     0.698350000000     0.0393885  
H218     H      0.839510000000     0.452970000000     0.707510000000     0.0414586  
H219     H      0.969730000000     0.582070000000     0.757130000000     0.0502456  
H220     H      0.009730000000     0.512410000000     0.219020000000     0.0410658  
H221     H      0.096680000000     0.555320000000     0.273770000000     0.0498532  
H222     H      0.020750000000     0.384780000000     0.201100000000     0.0388     
H223     H      0.990240000000     0.390610000000     0.271270000000     0.0416345  
H224     H      0.132080000000     0.524370000000     0.251390000000     0.0483967  
H225     H      0.060920000000     0.396330000000     0.289080000000     0.0482719  
H226     H      0.077710000000     0.552020000000     0.189620000000     0.0442284  
H227     H      0.762090000000     0.146480000000     0.846010000000     0.041718   
H228     H      0.822240000000     0.239960000000     0.830420000000     0.0456502  
H229     H      0.715870000000     0.221640000000     0.825040000000     0.0413965  
H230     H      0.745120000000     0.296220000000     0.873960000000     0.0371452  
H231     H      0.859650000000     0.230490000000     0.883380000000     0.0414637  
H232     H      0.732980000000     0.250770000000     0.926010000000     0.0494712  
H233     H      0.778510000000     0.148910000000     0.907260000000     0.0491386  
H234     H      0.134760000000     0.721300000000     0.106920000000     0.0380103  
H235     H      0.236110000000     0.785180000000     0.120070000000     0.0386027  
H236     H      0.239070000000     0.697930000000     0.135050000000     0.0362147  
H237     H      0.317530000000     0.730340000000     0.080450000000     0.037515   
H238     H      0.217320000000     0.811460000000     0.065470000000     0.0405232  
H239     H      0.264000000000     0.708070000000     0.031730000000     0.048057   
H240     H      0.140460000000     0.727790000000     0.045070000000     0.0337206  
H241     H      0.723810000000     0.518090000000     0.013810000000     0.0317371  
H242     H      0.823100000000     0.542850000000     0.013480000000     0.0411537  
H243     H      0.658700000000     0.409940000000     0.046650000000     0.0313422  
H244     H      0.729970000000     0.382750000000     0.068720000000     0.035633   
H245     H      0.810980000000     0.499190000000     0.969700000000     0.0487859  
H246     H      0.745890000000     0.383540000000     0.010400000000     0.0349718  
H247     H      0.741110000000     0.528190000000     0.953910000000     0.0360208  
H248     H      0.234780000000     0.598500000000     0.889680000000     0.0370064  
H249     H      0.279180000000     0.577800000000     0.959760000000     0.0473286  
H250     H      0.166100000000     0.435770000000     0.921990000000     0.0352627  
H251     H      0.253740000000     0.434150000000     0.915530000000     0.0265402  
H252     H      0.333380000000     0.596680000000     0.918280000000     0.0405063  
H253     H      0.280560000000     0.490630000000     0.871730000000     0.047224   
H254     H      0.264850000000     0.572940000000     0.854060000000     0.0374563  
H255     H      0.769370000000     0.742920000000     0.636990000000     0.0411462  
H256     H      0.736410000000     0.672640000000     0.583950000000     0.0365148  
H257     H      0.714190000000     0.789340000000     0.633500000000     0.042286   
H258     H      0.624340000000     0.736640000000     0.590670000000     0.0462587  
H259     H      0.748450000000     0.720610000000     0.533950000000     0.0465602  
H260     H      0.657140000000     0.761770000000     0.535390000000     0.0364245  
H261     H      0.824220000000     0.760320000000     0.596940000000     0.0414065  
H262     H      0.261380000000     0.251720000000     0.469600000000     0.0369335  
H263     H      0.252890000000     0.162790000000     0.500270000000     0.0362709  
H264     H      0.275770000000     0.271380000000     0.366540000000     0.032759   
H265     H      0.226890000000     0.180010000000     0.352830000000     0.0414574  
H266     H      0.312290000000     0.176450000000     0.465120000000     0.0403925  
H267     H      0.287550000000     0.169490000000     0.374780000000     0.0551102  
H268     H      0.326740000000     0.254660000000     0.500720000000     0.0395919  
H269     H      0.684950000000     0.929470000000     0.476220000000     0.0455122  
H270     H      0.600610000000     0.843410000000     0.459870000000     0.033487   
H271     H      0.714440000000     0.993460000000     0.382200000000     0.0515127  
H272     H      0.638800000000     0.932690000000     0.328030000000     0.0466959  
H273     H      0.639100000000     0.830650000000     0.419920000000     0.0351889  
H274     H      0.660510000000     0.882350000000     0.343100000000     0.040563   
H275     H      0.708790000000     0.879990000000     0.480280000000     0.0449155  
H276     H      0.268410000000     0.986880000000     0.591510000000     0.0456011  
H277     H      0.347030000000     0.056140000000     0.635590000000     0.034236   
H278     H      0.307110000000     0.023160000000     0.501540000000     0.0394454  
H279     H      0.387940000000     0.120180000000     0.495660000000     0.0400221  
H280     H      0.327400000000     0.105820000000     0.610530000000     0.0358957  
H281     H      0.344080000000     0.137580000000     0.525890000000     0.0392356  
H282     H      0.237860000000     0.023230000000     0.612560000000     0.0443609  
H283     H      0.966950000000     0.761010000000     0.353090000000     0.0369754  
H284     H      0.924730000000     0.687990000000     0.417090000000     0.0366196  
H285     H      0.108920000000     0.847620000000     0.375590000000     0.0369469  
H286     H      0.060780000000     0.756050000000     0.354880000000     0.0423647  
H287     H      0.969370000000     0.734790000000     0.459910000000     0.0439731  
H288     H      0.108970000000     0.756980000000     0.404130000000     0.0377709  
H289     H      0.927770000000     0.773050000000     0.392230000000     0.0438562  
H290     H      0.886190000000     0.182050000000     0.475800000000     0.043356   
H291     H      0.988050000000     0.262360000000     0.465910000000     0.0578881  
H292     H      0.848110000000     0.147170000000     0.559440000000     0.0376735  
H293     H      0.899840000000     0.231130000000     0.591960000000     0.0479145  
H294     H      0.014380000000     0.235360000000     0.515790000000     0.0541806  
H295     H      0.968540000000     0.230410000000     0.600320000000     0.0436879  
H296     H      0.940350000000     0.168880000000     0.457980000000     0.0415045  
H297     H      0.828730000000     0.910230000000     0.707900000000     0.0487914  
H298     H      0.874940000000     0.976600000000     0.764730000000     0.0495569  
H299     H      0.865660000000     0.845780000000     0.718500000000     0.0404758  
H300     H      0.933420000000     0.861020000000     0.784820000000     0.0537557  
H301     H      0.946640000000     0.003950000000     0.741840000000     0.0412726  
H302     H      0.988950000000     0.923460000000     0.758190000000     0.0494197  
H303     H      0.870860000000     0.975760000000     0.679000000000     0.0526339  
H304     H      0.026000000000     0.943070000000     0.251580000000     0.0396002  
H305     H      0.107550000000     0.968400000000     0.203960000000     0.0409647  
H306     H      0.996860000000     0.030520000000     0.231610000000     0.0417292  
H307     H      0.071110000000     0.100590000000     0.180210000000     0.0527219  
H308     H      0.153440000000     0.028300000000     0.232530000000     0.0422326  
H309     H      0.130610000000     0.105150000000     0.220080000000     0.0477384  
H310     H      0.091210000000     0.962040000000     0.289430000000     0.0458214  
H311     H      0.757780000000     0.772670000000     0.052140000000     0.0427484  
H312     H      0.718420000000     0.680550000000     0.079390000000     0.033825   
H313     H      0.690410000000     0.781340000000     0.977290000000     0.041358   
H314     H      0.614130000000     0.693070000000     0.960860000000     0.0351855  
H315     H      0.734190000000     0.663530000000     0.027370000000     0.0382602  
H316     H      0.665290000000     0.672070000000     0.949310000000     0.0239905  
H317     H      0.809790000000     0.752210000000     0.040310000000     0.0291712  
H318     H      0.218610000000     0.211280000000     0.873030000000     0.0355182  
H319     H      0.148120000000     0.193620000000     0.930140000000     0.0417433  
H320     H      0.343870000000     0.211520000000     0.934050000000     0.038587   
H321     H      0.242210000000     0.142980000000     0.916200000000     0.0422429  
H322     H      0.205180000000     0.238600000000     0.969020000000     0.0487634  
H323     H      0.264990000000     0.132710000000     0.975460000000     0.0460567  
H324     H      0.228250000000     0.273690000000     0.887420000000     0.0353396  
H325     H      0.769610000000     0.958590000000     0.063970000000     0.0454781  
H326     H      0.824420000000     0.992210000000     0.138060000000     0.0436513  
H327     H      0.811760000000     0.059210000000     0.989850000000     0.0290151  
H328     H      0.895880000000     0.122770000000     0.033480000000     0.043169   
H329     H      0.803560000000     0.043620000000     0.133110000000     0.0456258  
H330     H      0.853030000000     0.123380000000     0.077020000000     0.0485268  
H331     H      0.723200000000     0.962610000000     0.102270000000     0.0471425  
H332     H      0.133240000000     0.806810000000     0.937210000000     0.037623   
H333     H      0.207330000000     0.861730000000     0.993380000000     0.0413875  
H334     H      0.152280000000     0.850290000000     0.857880000000     0.0390959  
H335     H      0.242000000000     0.934530000000     0.856090000000     0.0462527  
H336     H      0.186510000000     0.913380000000     0.984240000000     0.0447724  
H337     H      0.213200000000     0.966530000000     0.886490000000     0.048378   
H338     H      0.097970000000     0.825000000000     0.975550000000     0.0350221  
H339     H      0.909110000000     0.674980000000     0.082260000000     0.038092   
H340     H      0.006340000000     0.685440000000     0.072010000000     0.0484614  
H341     H      0.854270000000     0.655340000000     0.009590000000     0.0275461  
H342     H      0.906550000000     0.663910000000     0.939790000000     0.0438246  
H343     H      0.026280000000     0.745310000000     0.034260000000     0.0398673  
H344     H      0.959820000000     0.732250000000     0.950140000000     0.0564564  
H345     H      0.964060000000     0.741580000000     0.094230000000     0.0407869  
H346     H      0.979520000000     0.216060000000     0.910630000000     0.0359079  
H347     H      0.032990000000     0.303720000000     0.872630000000     0.0506442  
H348     H      0.033570000000     0.234870000000     0.014730000000     0.048527   
H349     H      0.113020000000     0.327500000000     0.010820000000     0.042785   
H350     H      0.102780000000     0.306280000000     0.886570000000     0.0367672  
H351     H      0.145790000000     0.316880000000     0.965540000000     0.0315944  
H352     H      0.033830000000     0.214470000000     0.878510000000     0.0356116  
N1       N      0.488080000000     0.427380000000     0.772570000000    -0.167847   
N2       N      0.539620000000     0.492460000000     0.693050000000    -0.164949   
N3       N      0.359810000000     0.450100000000     0.774030000000    -0.103941   
N4       N      0.433990000000     0.496730000000     0.266540000000    -0.165052   
N5       N      0.447410000000     0.497350000000     0.171070000000    -0.165265   
N6       N      0.469680000000     0.638510000000     0.270200000000    -0.100478   
N7       N      0.494140000000     0.771780000000     0.516410000000    -0.167759   
N8       N      0.417980000000     0.664900000000     0.502410000000    -0.168704   
N9       N      0.488980000000     0.771540000000     0.643740000000    -0.10172    
N10      N      0.554110000000     0.226070000000     0.446040000000    -0.168716   
N11      N      0.518600000000     0.297730000000     0.465950000000    -0.166238   
N12      N      0.472300000000     0.186640000000     0.330790000000    -0.106198   
N13      N      0.563390000000     0.022340000000     0.776940000000    -0.16426    
N14      N      0.604500000000     0.055510000000     0.686670000000    -0.164882   
N15      N      0.519710000000     0.124670000000     0.788930000000    -0.102983   
N16      N      0.433960000000     0.941830000000     0.286050000000    -0.164873   
N17      N      0.442240000000     0.946050000000     0.188110000000    -0.164027   
N18      N      0.593070000000     0.999810000000     0.320510000000    -0.101222   
N19      N      0.560060000000     0.817310000000     0.905190000000    -0.164135   
N20      N      0.519480000000     0.702500000000     0.918530000000    -0.161652   
N21      N      0.557910000000     0.839720000000     0.780100000000    -0.102018   
N22      N      0.445000000000     0.134800000000     0.043230000000    -0.164636   
N23      N      0.459740000000     0.242290000000     0.029640000000    -0.156487   
N24      N      0.351440000000     0.083290000000     0.937500000000    -0.125787   
N25      N      0.792150000000     0.267830000000     0.412550000000    -0.166666   
N26      N      0.735250000000     0.198400000000     0.490340000000    -0.163107   
N27      N      0.900900000000     0.231500000000     0.387320000000    -0.104888   
N28      N      0.168070000000     0.699040000000     0.545400000000    -0.166157   
N29      N      0.264930000000     0.788300000000     0.497240000000    -0.166931   
N30      N      0.091820000000     0.763150000000     0.581270000000    -0.104809   
N31      N      0.789520000000     0.533940000000     0.439430000000    -0.164559   
N32      N      0.695610000000     0.536460000000     0.382340000000    -0.16516    
N33      N      0.661740000000     0.418920000000     0.490460000000    -0.117398   
N34      N      0.181770000000     0.455670000000     0.483660000000    -0.165521   
N35      N      0.287130000000     0.468470000000     0.539010000000    -0.167818   
N36      N      0.115380000000     0.312690000000     0.469020000000    -0.11062    
N37      N      0.942610000000     0.497270000000     0.762860000000    -0.164642   
N38      N      0.912150000000     0.503320000000     0.666870000000    -0.165549   
N39      N      0.845430000000     0.352210000000     0.790650000000    -0.107079   
N40      N      0.040000000000     0.466790000000     0.189510000000    -0.166733   
N41      N      0.056060000000     0.468520000000     0.287410000000    -0.16335    
N42      N      0.167580000000     0.447240000000     0.204590000000    -0.10534    
N43      N      0.708100000000     0.164680000000     0.881770000000    -0.159267   
N44      N      0.807160000000     0.267690000000     0.889060000000    -0.160432   
N45      N      0.591130000000     0.206120000000     0.857540000000    -0.0961597  
N46      N      0.169350000000     0.675680000000     0.083410000000    -0.165221   
N47      N      0.271510000000     0.775030000000     0.062150000000    -0.163468   
N48      N      0.232500000000     0.584650000000     0.112480000000    -0.10626    
N49      N      0.684150000000     0.446580000000     0.979040000000    -0.165632   
N50      N      0.787470000000     0.459820000000     0.036950000000    -0.167908   
N51      N      0.598900000000     0.298610000000     0.990160000000    -0.106902   
N52      N      0.188650000000     0.512090000000     0.886460000000    -0.168974   
N53      N      0.286470000000     0.513180000000     0.938970000000    -0.163614   
N54      N      0.148100000000     0.406080000000     0.811130000000    -0.106354   
N55      N      0.774740000000     0.803080000000     0.583850000000    -0.162184   
N56      N      0.674130000000     0.701720000000     0.572020000000    -0.163539   
N57      N      0.707600000000     0.892010000000     0.573470000000    -0.102159   
N58      N      0.331380000000     0.273100000000     0.425930000000    -0.163806   
N59      N      0.235170000000     0.166430000000     0.426420000000    -0.160598   
N60      N      0.389360000000     0.282280000000     0.314250000000    -0.103112   
N61      N      0.737430000000     0.937980000000     0.421300000000    -0.162628   
N62      N      0.614410000000     0.889800000000     0.394260000000    -0.165198   
N63      N      0.794410000000     0.989980000000     0.302820000000    -0.101458   
N64      N      0.249720000000     0.035530000000     0.538520000000    -0.161904   
N65      N      0.373400000000     0.087920000000     0.566410000000    -0.164532   
N66      N      0.265080000000     0.075030000000     0.410340000000    -0.0982889  
N67      N      0.023600000000     0.820300000000     0.398980000000    -0.165715   
N68      N      0.017160000000     0.716870000000     0.416950000000    -0.162509   
N69      N      0.132240000000     0.850850000000     0.490570000000    -0.117475   
N70      N      0.917620000000     0.145930000000     0.529740000000    -0.168308   
N71      N      0.950940000000     0.255970000000     0.531880000000    -0.161002   
N72      N      0.898900000000     0.098640000000     0.652920000000    -0.107008   
N73      N      0.908560000000     0.923010000000     0.683120000000    -0.163532   
N74      N      0.916950000000     0.927850000000     0.780330000000    -0.162226   
N75      N      0.965980000000     0.829050000000     0.674210000000    -0.103328   
N76      N      0.056780000000     0.017380000000     0.280150000000    -0.165501   
N77      N      0.086410000000     0.032630000000     0.187400000000    -0.164238   
N78      N      0.051950000000     0.141460000000     0.289200000000    -0.11069    
N79      N      0.762270000000     0.766540000000     0.980370000000    -0.161416   
N80      N      0.660900000000     0.677560000000     0.020460000000    -0.167909   
N81      N      0.704280000000     0.781220000000     0.863220000000    -0.100417   
N82      N      0.296440000000     0.253480000000     0.915220000000    -0.168621   
N83      N      0.204730000000     0.164990000000     0.965420000000    -0.168857   
N84      N      0.333200000000     0.249490000000     0.038430000000    -0.101215   
N85      N      0.750350000000     0.021920000000     0.043090000000    -0.165309   
N86      N      0.864510000000     0.055330000000     0.084550000000    -0.16593    
N87      N      0.767610000000     0.151360000000     0.994770000000    -0.114352   
N88      N      0.109500000000     0.865360000000     0.907190000000    -0.165314   
N89      N      0.233170000000     0.911520000000     0.929420000000    -0.16144    
N90      N      0.104570000000     0.924640000000     0.789060000000    -0.104822   
N91      N      0.914690000000     0.734390000000     0.028220000000    -0.167996   
N92      N      0.962540000000     0.674880000000     0.002790000000    -0.166905   
N93      N      0.805370000000     0.713670000000     0.925750000000    -0.0973685  
N94      N      0.048910000000     0.211480000000     0.952860000000    -0.167301   
N95      N      0.066150000000     0.315620000000     0.943960000000    -0.167256   
N96      N      0.154390000000     0.226730000000     0.055060000000    -0.102702   
O1       O      0.168510000000     0.083320000000     0.005710000000    -0.39086    
O2       O      0.123170000000     0.130720000000     0.008330000000    -0.343143   
O3       O      0.935460000000     0.980480000000     0.839140000000    -0.37063    
O4       O      0.931810000000     0.899090000000     0.855580000000    -0.373031   
O5       O      0.013050000000     0.128820000000     0.923910000000    -0.375744   
O6       O      0.034120000000     0.138510000000     0.001320000000    -0.364715   
O7       O      0.115950000000     0.940170000000     0.930170000000    -0.380802   
O8       O      0.025410000000     0.868710000000     0.916880000000    -0.355847   
O9       O      0.143560000000     0.062670000000     0.888900000000    -0.363025   
O10      O      0.202560000000     0.018380000000     0.976220000000    -0.519316   
O11      O      0.030210000000     0.089580000000     0.841210000000    -0.526035   
O12      O      0.891880000000     0.049370000000     0.875550000000    -0.350705   
O13      O      0.057920000000     0.061170000000     0.956940000000    -0.497926   
O14      O      0.021240000000     0.980480000000     0.908970000000    -0.628353   
O15      O      0.964250000000     0.819880000000     0.052240000000    -0.372154   
O16      O      0.931370000000     0.806070000000     0.976630000000    -0.360221   
O17      O      0.885410000000     0.988870000000     0.076660000000    -0.374064   
O18      O      0.953460000000     0.073900000000     0.059110000000    -0.363538   
O19      O      0.807850000000     0.853880000000     0.989910000000    -0.387791   
O20      O      0.850410000000     0.821570000000     0.947800000000    -0.347021   
O21      O      0.051290000000     0.971720000000     0.132560000000    -0.374666   
O22      O      0.060600000000     0.055090000000     0.113850000000    -0.381501   
O23      O      0.956530000000     0.862970000000     0.133690000000    -0.522056   
O24      O      0.091730000000     0.900080000000     0.090110000000    -0.350249   
O25      O      0.798440000000     0.885560000000     0.062350000000    -0.334675   
O26      O      0.807800000000     0.968730000000     0.971050000000    -0.537338   
O27      O      0.924390000000     0.889850000000     0.015510000000    -0.638486   
O28      O      0.960500000000     0.968650000000     0.063240000000    -0.489736   
O29      O      0.038890000000     0.920150000000     0.990890000000    -0.496755   
O30      O      0.942400000000     0.029710000000     0.980680000000    -0.638009   
O31      O      0.077550000000     0.003960000000     0.038190000000    -0.627962   
O32      O      0.903890000000     0.944980000000     0.933660000000    -0.489278   
O33      O      0.970280000000     0.856820000000     0.419860000000    -0.367149   
O34      O      0.069070000000     0.907350000000     0.421850000000    -0.360828   
O35      O      0.833580000000     0.972950000000     0.404290000000    -0.366111   
O36      O      0.811150000000     0.957770000000     0.479930000000    -0.359558   
O37      O      0.994930000000     0.010410000000     0.333540000000    -0.374444   
O38      O      0.073200000000     0.996830000000     0.356730000000    -0.365914   
O39      O      0.852910000000     0.833710000000     0.537780000000    -0.365439   
O40      O      0.823950000000     0.891930000000     0.555100000000    -0.351629   
O41      O      0.855200000000     0.793880000000     0.456250000000    -0.345368   
O42      O      0.966470000000     0.813090000000     0.530800000000    -0.540241   
O43      O      0.875050000000     0.927950000000     0.343150000000    -0.51823    
O44      O      0.928070000000     0.066790000000     0.354000000000    -0.328447   
O45      O      0.977140000000     0.936090000000     0.421190000000    -0.482127   
O46      O      0.891380000000     0.927340000000     0.463190000000    -0.629197   
O47      O      0.978610000000     0.941490000000     0.631650000000    -0.354995   
O48      O      0.906680000000     0.964370000000     0.611080000000    -0.363806   
O49      O      0.149520000000     0.136830000000     0.460680000000    -0.37093    
O50      O      0.158120000000     0.082380000000     0.415000000000    -0.351086   
O51      O      0.984290000000     0.124810000000     0.510720000000    -0.382115   
O52      O      0.900940000000     0.058820000000     0.543230000000    -0.366188   
O53      O      0.155660000000     0.007940000000     0.559740000000    -0.361359   
O54      O      0.171170000000     0.009530000000     0.483920000000    -0.358301   
O55      O      0.101060000000     0.043840000000     0.628600000000    -0.533609   
O56      O      0.073200000000     0.914490000000     0.618130000000    -0.331902   
O57      O      0.107720000000     0.158130000000     0.544100000000    -0.346706   
O58      O      0.060610000000     0.170560000000     0.429680000000    -0.531872   
O59      O      0.005700000000     0.034790000000     0.550510000000    -0.621257   
O60      O      0.092470000000     0.041420000000     0.506150000000    -0.499072   
O61      O      0.950510000000     0.924250000000     0.549510000000    -0.490241   
O62      O      0.034960000000     0.049330000000     0.419730000000    -0.633797   
O63      O      0.039090000000     0.929320000000     0.507420000000    -0.62257    
O64      O      0.947290000000     0.042230000000     0.462500000000    -0.497265   
O65      O      0.042820000000     0.357300000000     0.993500000000    -0.371718   
O66      O      0.017580000000     0.361100000000     0.916030000000    -0.368287   
O67      O      0.844800000000     0.421160000000     0.056700000000    -0.390876   
O68      O      0.886490000000     0.508680000000     0.058160000000    -0.35071    
O69      O      0.835410000000     0.331210000000     0.938470000000    -0.389964   
O70      O      0.903030000000     0.339990000000     0.890440000000    -0.346819   
O71      O      0.030480000000     0.433180000000     0.119730000000    -0.369901   
O72      O      0.006890000000     0.499240000000     0.124370000000    -0.382067   
O73      O      0.951940000000     0.320950000000     0.074740000000    -0.347949   
O74      O      0.101230000000     0.403180000000     0.077410000000    -0.522908   
O75      O      0.794340000000     0.322480000000     0.021130000000    -0.520573   
O76      O      0.792980000000     0.415760000000     0.937530000000    -0.360076   
O77      O      0.943590000000     0.381280000000     0.978010000000    -0.497337   
O78      O      0.943170000000     0.431090000000     0.048090000000    -0.626384   
O79      O      0.148000000000     0.616440000000     0.029820000000    -0.375191   
O80      O      0.074220000000     0.609670000000     0.069950000000    -0.356833   
O81      O      0.958130000000     0.531530000000     0.833060000000    -0.370542   
O82      O      0.964920000000     0.456010000000     0.828910000000    -0.372681   
O83      O      0.956260000000     0.613280000000     0.956730000000    -0.377822   
O84      O      0.980720000000     0.607850000000     0.034150000000    -0.372118   
O85      O      0.128850000000     0.547600000000     0.893150000000    -0.365244   
O86      O      0.087760000000     0.461250000000     0.880590000000    -0.354237   
O87      O      0.188360000000     0.638150000000     0.944950000000    -0.520399   
O88      O      0.185770000000     0.528740000000     0.001580000000    -0.365579   
O89      O      0.017880000000     0.633730000000     0.871610000000    -0.333818   
O90      O      0.868950000000     0.540610000000     0.884590000000    -0.524626   
O91      O      0.035890000000     0.574860000000     0.976100000000    -0.635776   
O92      O      0.036850000000     0.525150000000     0.907710000000    -0.475203   
O93      O      0.063060000000     0.504890000000     0.040340000000    -0.496136   
O94      O      0.914340000000     0.451480000000     0.914540000000    -0.629621   
O95      O      0.064750000000     0.457350000000     0.970190000000    -0.626043   
O96      O      0.913690000000     0.499950000000     0.983270000000    -0.488186   
O97      O      0.944150000000     0.328340000000     0.553420000000    -0.360576   
O98      O      0.972360000000     0.329520000000     0.481770000000    -0.365661   
O99      O      0.820540000000     0.481060000000     0.484290000000    -0.389537   
O100     O      0.882050000000     0.568160000000     0.480240000000    -0.337672   
O101     O      0.822960000000     0.354630000000     0.420630000000    -0.3968     
O102     O      0.892950000000     0.330530000000     0.417850000000    -0.347359   
O103     O      0.929820000000     0.459870000000     0.616170000000    -0.379998   
O104     O      0.945090000000     0.545090000000     0.594660000000    -0.375485   
O105     O      0.858050000000     0.349200000000     0.590180000000    -0.339857   
O106     O      0.010780000000     0.410960000000     0.625520000000    -0.52987    
O107     O      0.762000000000     0.381120000000     0.459060000000    -0.511854   
O108     O      0.836600000000     0.469270000000     0.367290000000    -0.362134   
O109     O      0.910220000000     0.393390000000     0.482900000000    -0.50059    
O110     O      0.903030000000     0.466440000000     0.521650000000    -0.61734    
O111     O      0.135120000000     0.609660000000     0.547840000000    -0.385331   
O112     O      0.068340000000     0.639390000000     0.535050000000    -0.356316   
O113     O      0.041040000000     0.513900000000     0.338480000000    -0.37374    
O114     O      0.015770000000     0.425900000000     0.357070000000    -0.376023   
O115     O      0.027180000000     0.645060000000     0.402030000000    -0.365532   
O116     O      0.987330000000     0.643790000000     0.468780000000    -0.356649   
O117     O      0.131690000000     0.499100000000     0.449880000000    -0.356884   
O118     O      0.083720000000     0.411070000000     0.454480000000    -0.346681   
O119     O      0.198330000000     0.598800000000     0.493650000000    -0.523987   
O120     O      0.136300000000     0.493750000000     0.573880000000    -0.369838   
O121     O      0.100250000000     0.622430000000     0.355130000000    -0.335776   
O122     O      0.950000000000     0.559670000000     0.327530000000    -0.526839   
O123     O      0.052090000000     0.578710000000     0.468450000000    -0.630697   
O124     O      0.059260000000     0.505330000000     0.430900000000    -0.464179   
O125     O      0.019260000000     0.512160000000     0.552070000000    -0.487512   
O126     O      0.941690000000     0.459950000000     0.398040000000    -0.623659   
O127     O      0.030350000000     0.437120000000     0.514320000000    -0.625457   
O128     O      0.932440000000     0.535000000000     0.436910000000    -0.488479   
O129     O      0.327220000000     0.944340000000     0.906520000000    -0.369156   
O130     O      0.310830000000     0.934910000000     0.983490000000    -0.363642   
O131     O      0.494450000000     0.833090000000     0.934230000000    -0.379404   
O132     O      0.586100000000     0.903090000000     0.920010000000    -0.364617   
O133     O      0.354830000000     0.812610000000     0.022230000000    -0.379978   
O134     O      0.326420000000     0.867400000000     0.048680000000    -0.356252   
O135     O      0.497490000000     0.004320000000     0.831440000000    -0.36055    
O136     O      0.578940000000     0.994780000000     0.851910000000    -0.365451   
O137     O      0.379170000000     0.901180000000     0.842740000000    -0.356752   
O138     O      0.405820000000     0.032440000000     0.846080000000    -0.529369   
O139     O      0.373840000000     0.789090000000     0.937630000000    -0.517546   
O140     O      0.468190000000     0.800850000000     0.036600000000    -0.350656   
O141     O      0.394410000000     0.909710000000     0.961340000000    -0.496752   
O142     O      0.483890000000     0.923770000000     0.916000000000    -0.623982   
O143     O      0.628730000000     0.129250000000     0.927610000000    -0.357377   
O144     O      0.661520000000     0.074700000000     0.907690000000    -0.351652   
O145     O      0.501110000000     0.961720000000     0.129660000000    -0.38057    
O146     O      0.408540000000     0.948880000000     0.111250000000    -0.369548   
O147     O      0.654860000000     0.986460000000     0.058400000000    -0.376353   
O148     O      0.679600000000     0.009120000000     0.982900000000    -0.36275    
O149     O      0.505790000000     0.099960000000     0.042140000000    -0.359405   
O150     O      0.407970000000     0.044200000000     0.037210000000    -0.360752   
O151     O      0.613810000000     0.168700000000     0.003650000000    -0.521478   
O152     O      0.503690000000     0.131460000000     0.922250000000    -0.355729   
O153     O      0.622070000000     0.039630000000     0.116110000000    -0.333925   
O154     O      0.560840000000     0.899360000000     0.113620000000    -0.530527   
O155     O      0.595410000000     0.035900000000     0.999490000000    -0.635868   
O156     O      0.506210000000     0.021340000000     0.043220000000    -0.481895   
O157     O      0.531600000000     0.033010000000     0.914250000000    -0.488726   
O158     O      0.456960000000     0.908830000000     0.046510000000    -0.63348    
O159     O      0.441390000000     0.021480000000     0.958680000000    -0.628471   
O160     O      0.547250000000     0.921060000000     0.001790000000    -0.496045   
O161     O      0.508650000000     0.139270000000     0.424020000000    -0.372353   
O162     O      0.549700000000     0.157720000000     0.497030000000    -0.371241   
O163     O      0.315710000000     0.878170000000     0.479120000000    -0.389133   
O164     O      0.358200000000     0.829950000000     0.466850000000    -0.354671   
O165     O      0.378110000000     0.012030000000     0.565640000000    -0.38095    
O166     O      0.460250000000     0.092200000000     0.552340000000    -0.351802   
O167     O      0.448460000000     0.993850000000     0.343480000000    -0.37195    
O168     O      0.426900000000     0.906620000000     0.361550000000    -0.372607   
O169     O      0.376730000000     0.042420000000     0.392040000000    -0.35791    
O170     O      0.507380000000     0.100560000000     0.341270000000    -0.516269   
O171     O      0.286720000000     0.929630000000     0.525060000000    -0.517171   
O172     O      0.363620000000     0.889230000000     0.593760000000    -0.355495   
O173     O      0.446850000000     0.038800000000     0.489020000000    -0.49373    
O174     O      0.406590000000     0.955140000000     0.443060000000    -0.625019   
O175     O      0.617060000000     0.964180000000     0.413620000000    -0.3776     
O176     O      0.529750000000     0.886290000000     0.413470000000    -0.353429   
O177     O      0.575680000000     0.996010000000     0.631350000000    -0.375214   
O178     O      0.571280000000     0.073920000000     0.614420000000    -0.385583   
O179     O      0.509360000000     0.846580000000     0.550280000000    -0.357733   
O180     O      0.467380000000     0.829590000000     0.476990000000    -0.373317   
O181     O      0.686500000000     0.109110000000     0.484000000000    -0.379341   
O182     O      0.641420000000     0.146020000000     0.517060000000    -0.355698   
O183     O      0.698010000000     0.022440000000     0.485180000000    -0.521788   
O184     O      0.653340000000     0.082050000000     0.386760000000    -0.33651    
O185     O      0.611180000000     0.924770000000     0.599880000000    -0.329901   
O186     O      0.469550000000     0.880200000000     0.633020000000    -0.523332   
O187     O      0.548270000000     0.939780000000     0.490840000000    -0.63663    
O188     O      0.590060000000     0.024270000000     0.535480000000    -0.499667   
O189     O      0.520160000000     0.992730000000     0.410910000000    -0.489742   
O190     O      0.477430000000     0.986660000000     0.569080000000    -0.628348   
O191     O      0.561300000000     0.077340000000     0.455070000000    -0.642662   
O192     O      0.436160000000     0.898910000000     0.523630000000    -0.49294    
O193     O      0.464670000000     0.319560000000     0.051420000000    -0.354135   
O194     O      0.477970000000     0.313610000000     0.976510000000    -0.353058   
O195     O      0.314890000000     0.457870000000     0.983210000000    -0.393719   
O196     O      0.374890000000     0.545680000000     0.983660000000    -0.34882    
O197     O      0.325490000000     0.341790000000     0.904670000000    -0.397997   
O198     O      0.394910000000     0.315950000000     0.920560000000    -0.352598   
O199     O      0.454190000000     0.452270000000     0.115570000000    -0.382169   
O200     O      0.452490000000     0.530570000000     0.093830000000    -0.377853   
O201     O      0.372690000000     0.338610000000     0.094600000000    -0.333803   
O202     O      0.524090000000     0.397460000000     0.120440000000    -0.525663   
O203     O      0.264180000000     0.351500000000     0.967310000000    -0.527749   
O204     O      0.333140000000     0.443320000000     0.869090000000    -0.359491   
O205     O      0.414590000000     0.374880000000     0.982760000000    -0.494481   
O206     O      0.404600000000     0.446600000000     0.022200000000    -0.621381   
O207     O      0.620390000000     0.590090000000     0.048210000000    -0.377009   
O208     O      0.560970000000     0.624890000000     0.025090000000    -0.352098   
O209     O      0.497820000000     0.482690000000     0.825990000000    -0.372437   
O210     O      0.502900000000     0.405930000000     0.849670000000    -0.374342   
O211     O      0.506530000000     0.622880000000     0.895470000000    -0.366196   
O212     O      0.489070000000     0.628090000000     0.969510000000    -0.352701   
O213     O      0.633850000000     0.487980000000     0.941250000000    -0.359756   
O214     O      0.588250000000     0.400060000000     0.946490000000    -0.351276   
O215     O      0.694830000000     0.592500000000     0.971520000000    -0.534794   
O216     O      0.647480000000     0.493480000000     0.064050000000    -0.372804   
O217     O      0.593930000000     0.595710000000     0.852540000000    -0.346341   
O218     O      0.445190000000     0.553090000000     0.823210000000    -0.520436   
O219     O      0.544910000000     0.561870000000     0.961090000000    -0.632164   
O220     O      0.555970000000     0.492010000000     0.922740000000    -0.462109   
O221     O      0.523380000000     0.499430000000     0.045240000000    -0.479733   
O222     O      0.436880000000     0.439710000000     0.898330000000    -0.629209   
O223     O      0.538430000000     0.427300000000     0.007790000000    -0.629136   
O224     O      0.423310000000     0.512830000000     0.935690000000    -0.489107   
O225     O      0.529210000000     0.363930000000     0.508480000000    -0.364266   
O226     O      0.509370000000     0.368110000000     0.430020000000    -0.369988   
O227     O      0.348250000000     0.433750000000     0.562010000000    -0.384918   
O228     O      0.385560000000     0.521350000000     0.560350000000    -0.336393   
O229     O      0.387340000000     0.341950000000     0.471940000000    -0.3465     
O230     O      0.406750000000     0.357130000000     0.397520000000    -0.346223   
O231     O      0.548000000000     0.466630000000     0.624100000000    -0.372099   
O232     O      0.508830000000     0.521980000000     0.625180000000    -0.389097   
O233     O      0.482400000000     0.356580000000     0.597380000000    -0.344392   
O234     O      0.627790000000     0.448410000000     0.571220000000    -0.526983   
O235     O      0.297130000000     0.333790000000     0.527230000000    -0.528746   
O236     O      0.293380000000     0.403140000000     0.438250000000    -0.368508   
O237     O      0.457420000000     0.403030000000     0.486040000000    -0.466565   
O238     O      0.451020000000     0.451460000000     0.554120000000    -0.617214   
O239     O      0.647020000000     0.637240000000     0.523580000000    -0.392      
O240     O      0.576100000000     0.634730000000     0.564190000000    -0.360352   
O241     O      0.443790000000     0.533090000000     0.335180000000    -0.367327   
O242     O      0.467630000000     0.466980000000     0.333390000000    -0.379457   
O243     O      0.431400000000     0.612360000000     0.457220000000    -0.3727     
O244     O      0.454010000000     0.610360000000     0.535220000000    -0.373074   
O245     O      0.630030000000     0.564740000000     0.391190000000    -0.371637   
O246     O      0.594980000000     0.477620000000     0.384260000000    -0.362298   
O247     O      0.673170000000     0.662210000000     0.433630000000    -0.524965   
O248     O      0.693850000000     0.562720000000     0.495190000000    -0.363032   
O249     O      0.509120000000     0.643260000000     0.374370000000    -0.345091   
O250     O      0.360430000000     0.545540000000     0.382130000000    -0.524471   
O251     O      0.530670000000     0.591770000000     0.473670000000    -0.63353    
O252     O      0.533100000000     0.539890000000     0.406480000000    -0.487924   
O253     O      0.569010000000     0.531830000000     0.539620000000    -0.498991   
O254     O      0.414460000000     0.459950000000     0.419710000000    -0.621551   
O255     O      0.572290000000     0.479170000000     0.472800000000    -0.630616   
O256     O      0.412800000000     0.509410000000     0.486440000000    -0.491621   
Zr1      Zr     0.105140000000     0.008440000000     0.961250000000     1.3848     
Zr2      Zr     0.973540000000     0.033920000000     0.906130000000     1.37114    
Zr3      Zr     0.008840000000     0.916070000000     0.066190000000     1.37642    
Zr4      Zr     0.877050000000     0.942210000000     0.010160000000     1.392      
Zr5      Zr     0.028000000000     0.056460000000     0.032730000000     1.38538    
Zr6      Zr     0.953060000000     0.892400000000     0.939550000000     1.36618    
Zr7      Zr     0.937070000000     0.874270000000     0.487060000000     1.36971    
Zr8      Zr     0.934400000000     0.991990000000     0.399150000000     1.38884    
Zr9      Zr     0.051170000000     0.979680000000     0.570970000000     1.3744     
Zr10     Zr     0.048630000000     0.096300000000     0.485270000000     1.38627    
Zr11     Zr     0.078680000000     0.992880000000     0.440980000000     1.36772    
Zr12     Zr     0.903880000000     0.978010000000     0.526820000000     1.36313    
Zr13     Zr     0.017920000000     0.409770000000     0.039090000000     1.38285    
Zr14     Zr     0.870180000000     0.405020000000     0.985180000000     1.37853    
Zr15     Zr     0.109520000000     0.551640000000     0.971140000000     1.38166    
Zr16     Zr     0.961870000000     0.546930000000     0.914650000000     1.38223    
Zr17     Zr     0.989360000000     0.429090000000     0.907660000000     1.36527    
Zr18     Zr     0.987370000000     0.527350000000     0.045520000000     1.36911    
Zr19     Zr     0.950760000000     0.417850000000     0.558420000000     1.37499    
Zr20     Zr     0.864420000000     0.442290000000     0.444920000000     1.38882    
Zr21     Zr     0.098190000000     0.530390000000     0.507020000000     1.37665    
Zr22     Zr     0.012350000000     0.553680000000     0.393140000000     1.38304    
Zr23     Zr     0.988800000000     0.411240000000     0.437430000000     1.36168    
Zr24     Zr     0.971970000000     0.561410000000     0.513250000000     1.34654    
Zr25     Zr     0.431230000000     0.971880000000     0.895700000000     1.37925    
Zr26     Zr     0.446340000000     0.861450000000     0.981940000000     1.38464    
Zr27     Zr     0.542530000000     0.082880000000     0.976280000000     1.37715    
Zr28     Zr     0.556310000000     0.971490000000     0.063950000000     1.39147    
Zr29     Zr     0.405150000000     0.958490000000     0.025890000000     1.35787    
Zr30     Zr     0.585330000000     0.985350000000     0.936520000000     1.35626    
Zr31     Zr     0.470440000000     0.043500000000     0.411650000000     1.37671    
Zr32     Zr     0.387940000000     0.950090000000     0.523190000000     1.38088    
Zr33     Zr     0.609590000000     0.026240000000     0.457200000000     1.41058    
Zr34     Zr     0.527020000000     0.935890000000     0.568510000000     1.38458    
Zr35     Zr     0.538890000000     0.074370000000     0.532920000000     1.35896    
Zr36     Zr     0.457280000000     0.904420000000     0.444430000000     1.35912    
Zr37     Zr     0.461200000000     0.404600000000     0.055690000000     1.38394    
Zr38     Zr     0.361830000000     0.419010000000     0.947130000000     1.39527    
Zr39     Zr     0.600960000000     0.521580000000     0.997100000000     1.37698    
Zr40     Zr     0.500780000000     0.534350000000     0.887700000000     1.39372    
Zr41     Zr     0.491600000000     0.396560000000     0.933360000000     1.36903    
Zr42     Zr     0.467710000000     0.542470000000     0.010370000000     1.36061    
Zr43     Zr     0.531880000000     0.437660000000     0.545480000000     1.39265    
Zr44     Zr     0.376280000000     0.415160000000     0.492920000000     1.35839    
Zr45     Zr     0.608170000000     0.573000000000     0.466830000000     1.38698    
Zr46     Zr     0.453550000000     0.555110000000     0.415470000000     1.38675    
Zr47     Zr     0.495520000000     0.444880000000     0.412180000000     1.3657     
Zr48     Zr     0.488500000000     0.547090000000     0.545980000000     1.37316    


