data_structure

_audit_creation_method RASPA-1.0
_audit_creation_date 2023-6-4
_audit_author_name 'Poobodin Mano'

_cell_length_a    42.1039
_cell_length_b    46.1351
_cell_length_c    46.6055
_cell_angle_alpha 82.7853
_cell_angle_beta  96.304
_cell_angle_gamma 119.442
_cell_volume      78092.7

_symmetry_cell_setting          triclinic
_symmetry_space_group_name_Hall 'P 1'
_symmetry_space_group_name_H-M  'P 1'
_symmetry_Int_Tables_number     1

_symmetry_equiv_pos_as_xyz 'x,y,z'

loop_
_atom_site_label
_atom_site_type_symbol
_atom_site_fract_x
_atom_site_fract_y
_atom_site_fract_z
_atom_site_charge
C1       C      0.114840000000     0.073430000000     0.006150000000     0.408588   
C2       C      0.948570000000     0.963810000000     0.889410000000     0.403024   
C3       C      0.027760000000     0.097230000000     0.976880000000     0.403076   
C4       C      0.040500000000     0.937230000000     0.926450000000     0.394879   
C5       C      0.967400000000     0.866250000000     0.999480000000     0.413456   
C6       C      0.952780000000     0.016530000000     0.055510000000     0.391287   
C7       C      0.874820000000     0.888830000000     0.971190000000     0.395416   
C8       C      0.037260000000     0.997150000000     0.088920000000     0.412424   
C9       C      0.013250000000     0.899630000000     0.452150000000     0.418277   
C10      C      0.869260000000     0.967640000000     0.462880000000     0.403906   
C11      C      0.012440000000     0.981830000000     0.389310000000     0.40421    
C12      C      0.878100000000     0.891760000000     0.530430000000     0.403853   
C13      C      0.964770000000     0.973780000000     0.588580000000     0.394882   
C14      C      0.100590000000     0.065940000000     0.448220000000     0.393902   
C15      C      0.961840000000     0.059010000000     0.521280000000     0.391832   
C16      C      0.111130000000     0.996050000000     0.513930000000     0.409795   
C17      C      0.029240000000     0.398170000000     0.972750000000     0.411128   
C18      C      0.903400000000     0.468230000000     0.043820000000     0.414448   
C19      C      0.911070000000     0.368280000000     0.948930000000     0.3964     
C20      C      0.026200000000     0.487010000000     0.082080000000     0.405124   
C21      C      0.070450000000     0.588970000000     0.012210000000     0.401888   
C22      C      0.957040000000     0.472310000000     0.877760000000     0.410652   
C23      C      0.951550000000     0.559450000000     0.987090000000     0.398138   
C24      C      0.069360000000     0.494560000000     0.911550000000     0.393671   
C25      C      0.968500000000     0.366930000000     0.497560000000     0.401775   
C26      C      0.887240000000     0.499070000000     0.498020000000     0.413971   
C27      C      0.901740000000     0.378920000000     0.434330000000     0.412887   
C28      C      0.959730000000     0.481610000000     0.576880000000     0.396482   
C29      C      0.066020000000     0.575940000000     0.528920000000     0.393688   
C30      C      0.012850000000     0.477510000000     0.382340000000     0.397038   
C31      C      0.997640000000     0.589690000000     0.459890000000     0.37474    
C32      C      0.080150000000     0.466720000000     0.457250000000     0.391222   
C33      C      0.366050000000     0.959480000000     0.953490000000     0.405335   
C34      C      0.517630000000     0.901220000000     0.946790000000     0.410506   
C35      C      0.377200000000     0.893330000000     0.018520000000     0.394728   
C36      C      0.513800000000     0.984530000000     0.879240000000     0.394741   
C37      C      0.599950000000     0.068090000000     0.936630000000     0.403899   
C38      C      0.465900000000     0.979480000000     0.078040000000     0.393488   
C39      C      0.608650000000     0.991660000000     0.005330000000     0.392493   
C40      C      0.462400000000     0.060290000000     0.011930000000     0.396241   
C41      C      0.519290000000     0.093370000000     0.468960000000     0.398082   
C42      C      0.364490000000     0.886750000000     0.463940000000     0.410661   
C43      C      0.444130000000     0.023400000000     0.541690000000     0.392986   
C44      C      0.443060000000     0.961750000000     0.379790000000     0.409589   
C45      C      0.524390000000     0.937850000000     0.413200000000     0.377281   
C46      C      0.534260000000     0.993990000000     0.578990000000     0.402354   
C47      C      0.449080000000     0.859610000000     0.492400000000     0.410018   
C48      C      0.608280000000     0.066880000000     0.496190000000     0.39398    
C49      C      0.470320000000     0.368100000000     0.996950000000     0.405422   
C50      C      0.395520000000     0.504890000000     0.995770000000     0.399464   
C51      C      0.404940000000     0.381870000000     0.932930000000     0.402262   
C52      C      0.469520000000     0.486840000000     0.075960000000     0.396991   
C53      C      0.575250000000     0.578180000000     0.026870000000     0.404066   
C54      C      0.516500000000     0.477960000000     0.880700000000     0.408686   
C55      C      0.506210000000     0.593030000000     0.957700000000     0.393518   
C56      C      0.583520000000     0.466250000000     0.954220000000     0.381374   
C57      C      0.524230000000     0.396980000000     0.472650000000     0.409223   
C58      C      0.402650000000     0.471600000000     0.543380000000     0.3987     
C59      C      0.407020000000     0.369090000000     0.449070000000     0.408588   
C60      C      0.525870000000     0.487950000000     0.581620000000     0.39411    
C61      C      0.570250000000     0.589830000000     0.511200000000     0.39209    
C62      C      0.455430000000     0.474890000000     0.377850000000     0.411447   
C63      C      0.449400000000     0.559980000000     0.488570000000     0.397695   
C64      C      0.563960000000     0.492690000000     0.410840000000     0.380746   
C65      C      0.538740000000     0.505780000000     0.804200000000    -0.167021   
C66      C      0.541990000000     0.464600000000     0.625640000000     0.0671036  
C67      C      0.531080000000     0.510270000000     0.626460000000     0.0695263  
C68      C      0.546770000000     0.462340000000     0.655790000000    -0.0928954  
C69      C      0.524100000000     0.451190000000     0.719020000000    -0.0389871  
C70      C      0.523050000000     0.449530000000     0.749100000000    -0.0294978  
C71      C      0.546580000000     0.481560000000     0.703510000000    -0.00487699 
C72      C      0.536480000000     0.509140000000     0.656570000000    -0.0931144  
C73      C      0.544780000000     0.478160000000     0.764160000000    -0.0199011  
C74      C      0.532400000000     0.451070000000     0.815180000000    -0.11164    
C75      C      0.569220000000     0.507840000000     0.748690000000    -0.029551   
C76      C      0.525220000000     0.451680000000     0.843640000000     0.0797084  
C77      C      0.531670000000     0.506110000000     0.832870000000     0.237324   
C78      C      0.569790000000     0.509620000000     0.718650000000    -0.0393936  
C79      C      0.543780000000     0.484610000000     0.671530000000     0.0476587  
C80      C      0.539200000000     0.478340000000     0.795070000000     0.0813079  
C81      C      0.444700000000     0.503840000000     0.301490000000    -0.164913   
C82      C      0.461910000000     0.461960000000     0.124310000000     0.0701245  
C83      C      0.464550000000     0.514740000000     0.113920000000     0.070066   
C84      C      0.459520000000     0.462930000000     0.153620000000    -0.0936508  
C85      C      0.483530000000     0.484920000000     0.214030000000    -0.0386421  
C86      C      0.481120000000     0.482640000000     0.243850000000    -0.0295031  
C87      C      0.459520000000     0.491910000000     0.194940000000    -0.00469216 
C88      C      0.461770000000     0.516330000000     0.143320000000    -0.0919396  
C89      C      0.454430000000     0.487040000000     0.255350000000    -0.0194949  
C90      C      0.454680000000     0.456690000000     0.303570000000    -0.111653   
C91      C      0.431260000000     0.495360000000     0.236240000000    -0.0293429  
C92      C      0.454680000000     0.454130000000     0.333600000000     0.082579   
C93      C      0.444480000000     0.500710000000     0.332030000000     0.236989   
C94      C      0.433880000000     0.497880000000     0.206230000000    -0.0387416  
C95      C      0.459950000000     0.490460000000     0.163490000000     0.048438   
C96      C      0.450820000000     0.482350000000     0.287160000000     0.0812982  
C97      C      0.433910000000     0.776880000000     0.524760000000    -0.167862   
C98      C      0.443170000000     0.595080000000     0.518180000000     0.0705027  
C99      C      0.424370000000     0.595130000000     0.468320000000     0.0683675  
C100     C      0.435630000000     0.620610000000     0.521420000000    -0.0945197  
C101     C      0.393000000000     0.670160000000     0.484820000000    -0.0393281  
C102     C      0.392740000000     0.700260000000     0.485600000000    -0.0299351  
C103     C      0.421150000000     0.665310000000     0.499660000000    -0.00486558 
C104     C      0.416910000000     0.621050000000     0.470750000000    -0.0924414  
C105     C      0.420630000000     0.725970000000     0.501250000000    -0.0205583  
C106     C      0.416960000000     0.774430000000     0.473880000000    -0.113393   
C107     C      0.448250000000     0.720740000000     0.516560000000    -0.029336   
C108     C      0.424420000000     0.807490000000     0.472290000000     0.0813437  
C109     C      0.441330000000     0.810330000000     0.522740000000     0.23953    
C110     C      0.448540000000     0.690830000000     0.515750000000    -0.0388628  
C111     C      0.423560000000     0.634710000000     0.497370000000     0.0476594  
C112     C      0.422850000000     0.759140000000     0.500110000000     0.0819573  
C113     C      0.560080000000     0.337830000000     0.490230000000    -0.167733   
C114     C      0.516620000000     0.140010000000     0.442570000000     0.0689933  
C115     C      0.549100000000     0.146350000000     0.488330000000     0.0712088  
C116     C      0.523240000000     0.172920000000     0.441070000000    -0.0939064  
C117     C      0.553470000000     0.248270000000     0.439700000000    -0.0391067  
C118     C      0.554410000000     0.278890000000     0.440320000000    -0.0301537  
C119     C      0.545970000000     0.226030000000     0.464710000000    -0.00528147 
C120     C      0.556360000000     0.179270000000     0.487440000000    -0.0943139  
C121     C      0.547840000000     0.287720000000     0.465960000000    -0.0202768  
C122     C      0.527080000000     0.328140000000     0.443900000000    -0.112511   
C123     C      0.541020000000     0.265700000000     0.491050000000    -0.0295028  
C124     C      0.521500000000     0.355050000000     0.446180000000     0.0816692  
C125     C      0.554150000000     0.365000000000     0.492180000000     0.238687   
C126     C      0.540100000000     0.235220000000     0.490430000000    -0.0388015  
C127     C      0.542540000000     0.192630000000     0.464030000000     0.0482872  
C128     C      0.545700000000     0.318730000000     0.466400000000     0.0819156  
C129     C      0.556750000000     0.025890000000     0.651700000000    -0.164523   
C130     C      0.553910000000     0.992480000000     0.842740000000     0.0702966  
C131     C      0.493610000000     0.982440000000     0.829350000000     0.0686298  
C132     C      0.560860000000     0.994730000000     0.813580000000    -0.0913807  
C133     C      0.512940000000     0.966010000000     0.744030000000    -0.0390578  
C134     C      0.516870000000     0.967590000000     0.714450000000    -0.0295561  
C135     C      0.539140000000     0.991220000000     0.760970000000    -0.00447934 
C136     C      0.499460000000     0.984030000000     0.800210000000    -0.0921682  
C137     C      0.546940000000     0.994580000000     0.700990000000    -0.0199439  
C138     C      0.541830000000     0.968290000000     0.655850000000    -0.113229   
C139     C      0.573460000000     0.019690000000     0.717960000000    -0.0295366  
C140     C      0.539140000000     0.968880000000     0.625780000000     0.078896   
C141     C      0.553740000000     0.025980000000     0.621130000000     0.236367   
C142     C      0.569750000000     0.017870000000     0.747770000000    -0.0389089  
C143     C      0.533310000000     0.990170000000     0.791990000000     0.0475077  
C144     C      0.549440000000     0.996590000000     0.669170000000     0.0801813  
C145     C      0.423680000000     0.932030000000     0.306220000000    -0.163856   
C146     C      0.425860000000     0.970460000000     0.115020000000     0.06895    
C147     C      0.487060000000     0.982890000000     0.127700000000     0.0684806  
C148     C      0.419060000000     0.967450000000     0.144350000000    -0.0913138  
C149     C      0.411160000000     0.942780000000     0.209910000000    -0.0390222  
C150     C      0.407580000000     0.939780000000     0.239870000000    -0.0296244  
C151     C      0.441300000000     0.970320000000     0.196960000000    -0.00441008 
C152     C      0.481360000000     0.980550000000     0.156990000000    -0.0925991  
C153     C      0.433760000000     0.964550000000     0.257300000000    -0.0196226  
C154     C      0.438300000000     0.989510000000     0.303080000000    -0.113114   
C155     C      0.463420000000     0.992340000000     0.244140000000    -0.029556   
C156     C      0.440320000000     0.988140000000     0.333160000000     0.0816966  
C157     C      0.425940000000     0.931130000000     0.336870000000     0.237982   
C158     C      0.467190000000     0.995140000000     0.214400000000    -0.039145   
C159     C      0.447090000000     0.972670000000     0.165690000000     0.0471029  
C160     C      0.431070000000     0.961670000000     0.289210000000     0.0805817  
C161     C      0.559550000000     0.850450000000     0.934220000000    -0.163554   
C162     C      0.509760000000     0.640540000000     0.975870000000     0.0708428  
C163     C      0.521840000000     0.643350000000     0.926840000000     0.0679305  
C164     C      0.515570000000     0.673140000000     0.972250000000    -0.0932722  
C165     C      0.500280000000     0.729450000000     0.953530000000    -0.0391185  
C166     C      0.501610000000     0.760370000000     0.950290000000    -0.0297562  
C167     C      0.525760000000     0.724570000000     0.940720000000    -0.00477686 
C168     C      0.527530000000     0.676170000000     0.922370000000    -0.0909952  
C169     C      0.528140000000     0.787440000000     0.933760000000    -0.0195095  
C170     C      0.494270000000     0.819410000000     0.926600000000    -0.114107   
C171     C      0.553920000000     0.782880000000     0.920920000000    -0.0300613  
C172     C      0.492250000000     0.847720000000     0.930460000000     0.0826285  
C173     C      0.556860000000     0.879410000000     0.937320000000     0.238204   
C174     C      0.552600000000     0.751580000000     0.924240000000    -0.0392983  
C175     C      0.523780000000     0.691230000000     0.945150000000     0.0466191  
C176     C      0.527780000000     0.819800000000     0.930420000000     0.0800395  
C177     C      0.446450000000     0.283180000000     0.031120000000    -0.163984   
C178     C      0.487060000000     0.114970000000     0.026260000000     0.0729055  
C179     C      0.422820000000     0.081700000000     0.020270000000     0.0685883  
C180     C      0.483780000000     0.143090000000     0.028500000000    -0.0934284  
C181     C      0.473060000000     0.199900000000     0.002420000000    -0.0416501  
C182     C      0.473470000000     0.230480000000     0.998640000000    -0.0272298  
C183     C      0.447620000000     0.173040000000     0.019850000000    -0.00324846 
C184     C      0.418530000000     0.109890000000     0.021770000000    -0.0898856  
C185     C      0.448170000000     0.235220000000     0.011900000000    -0.0213393  
C186     C      0.458360000000     0.287310000000     0.981240000000    -0.112512   
C187     C      0.422120000000     0.208230000000     0.029000000000    -0.0295485  
C188     C      0.464680000000     0.320070000000     0.978350000000     0.0798173  
C189     C      0.452560000000     0.316470000000     0.027690000000     0.233982   
C190     C      0.421710000000     0.177300000000     0.032800000000    -0.0401151  
C191     C      0.449540000000     0.141380000000     0.024390000000     0.0468614  
C192     C      0.450080000000     0.268620000000     0.007980000000     0.0781067  
C193     C      0.813770000000     0.303180000000     0.434350000000    -0.170684   
C194     C      0.670780000000     0.093470000000     0.485510000000     0.0702774  
C195     C      0.648070000000     0.123820000000     0.505750000000     0.0694689  
C196     C      0.703840000000     0.122390000000     0.480580000000    -0.0921413  
C197     C      0.756410000000     0.187650000000     0.450440000000    -0.038769   
C198     C      0.785030000000     0.218040000000     0.439870000000    -0.0300633  
C199     C      0.741220000000     0.184880000000     0.476870000000    -0.00448207 
C200     C      0.680670000000     0.153530000000     0.500480000000    -0.0910738  
C201     C      0.798650000000     0.246300000000     0.455300000000    -0.0207987  
C202     C      0.861780000000     0.288600000000     0.440930000000    -0.110918   
C203     C      0.784420000000     0.243560000000     0.481970000000    -0.0295875  
C204     C      0.887110000000     0.322160000000     0.434230000000     0.0797561  
C205     C      0.839660000000     0.336650000000     0.427490000000     0.242577   
C206     C      0.756200000000     0.213120000000     0.492780000000    -0.0391051  
C207     C      0.708600000000     0.153240000000     0.486710000000     0.0467848  
C208     C      0.825100000000     0.279480000000     0.442690000000     0.082332   
C209     C      0.270420000000     0.828850000000     0.483420000000    -0.166527   
C210     C      0.082780000000     0.633350000000     0.525250000000     0.0680966  
C211     C      0.126770000000     0.616230000000     0.541310000000     0.0712097  
C212     C      0.110450000000     0.665930000000     0.518470000000    -0.0904348  
C213     C      0.209340000000     0.707550000000     0.501300000000    -0.0383285  
C214     C      0.237350000000     0.737370000000     0.489410000000    -0.029417   
C215     C      0.177250000000     0.705870000000     0.509700000000    -0.00376913 
C216     C      0.155010000000     0.648760000000     0.536250000000    -0.0931262  
C217     C      0.233830000000     0.766370000000     0.484510000000    -0.0184306  
C218     C      0.291630000000     0.800710000000     0.457190000000    -0.110032   
C219     C      0.201040000000     0.764330000000     0.491600000000    -0.0289872  
C220     C      0.323680000000     0.830940000000     0.452100000000     0.0818808  
C221     C      0.302210000000     0.859130000000     0.477210000000     0.241684   
C222     C      0.173560000000     0.734810000000     0.504500000000    -0.0383943  
C223     C      0.147320000000     0.673600000000     0.522280000000     0.0463591  
C224     C      0.265260000000     0.798990000000     0.474350000000     0.0807906  
C225     C      0.793870000000     0.484170000000     0.497470000000    -0.169399   
C226     C      0.627480000000     0.531850000000     0.415010000000     0.0681711  
C227     C      0.607650000000     0.473780000000     0.420640000000     0.0667214  
C228     C      0.662620000000     0.538900000000     0.425970000000    -0.090109   
C229     C      0.738040000000     0.540630000000     0.441460000000    -0.0393174  
C230     C      0.769920000000     0.542270000000     0.455670000000    -0.029413   
C231     C      0.703890000000     0.518480000000     0.452680000000    -0.00455105 
C232     C      0.642150000000     0.479840000000     0.432040000000    -0.0936054  
C233     C      0.767990000000     0.521960000000     0.481340000000    -0.0202107  
C234     C      0.835160000000     0.543360000000     0.494280000000    -0.112633   
C235     C      0.734080000000     0.502110000000     0.493720000000    -0.0303416  
C236     C      0.864520000000     0.536800000000     0.499520000000     0.0824235  
C237     C      0.823710000000     0.478220000000     0.502080000000     0.243451   
C238     C      0.702360000000     0.500250000000     0.479460000000    -0.0382059  
C239     C      0.669490000000     0.512570000000     0.436130000000     0.0494671  
C240     C      0.799450000000     0.516790000000     0.492130000000     0.0822779  
C241     C      0.146620000000     0.439330000000     0.487680000000    -0.163654   
C242     C      0.340960000000     0.444110000000     0.555980000000     0.071796   
C243     C      0.375280000000     0.503090000000     0.554330000000     0.0702067  
C244     C      0.308360000000     0.445250000000     0.554070000000    -0.0925913  
C245     C      0.241220000000     0.454300000000     0.547500000000    -0.0391352  
C246     C      0.209440000000     0.452080000000     0.532680000000    -0.0295244  
C247     C      0.275780000000     0.477600000000     0.537470000000    -0.00432962 
C248     C      0.343050000000     0.505260000000     0.551820000000    -0.0923635  
C249     C      0.211520000000     0.473010000000     0.507430000000    -0.0195034  
C250     C      0.176390000000     0.499130000000     0.479710000000    -0.113617   
C251     C      0.246160000000     0.496940000000     0.497930000000    -0.0299362  
C252     C      0.144050000000     0.496740000000     0.466510000000     0.0800159  
C253     C      0.113920000000     0.437480000000     0.474250000000     0.235869   
C254     C      0.277860000000     0.499270000000     0.512810000000    -0.0389106  
C255     C      0.309150000000     0.476140000000     0.549560000000     0.0473829  
C256     C      0.177770000000     0.470380000000     0.491330000000     0.080269   
C257     C      0.943660000000     0.449790000000     0.802380000000    -0.166314   
C258     C      0.953430000000     0.509010000000     0.614550000000     0.0696891  
C259     C      0.947280000000     0.454880000000     0.624520000000     0.0693223  
C260     C      0.947900000000     0.509580000000     0.643520000000    -0.0920917  
C261     C      0.960450000000     0.510860000000     0.709490000000    -0.0388263  
C262     C      0.960040000000     0.509400000000     0.739620000000    -0.0296413  
C263     C      0.937860000000     0.482300000000     0.694570000000    -0.0046822  
C264     C      0.941680000000     0.454630000000     0.653420000000    -0.0931104  
C265     C      0.937190000000     0.479320000000     0.755340000000    -0.0201291  
C266     C      0.940940000000     0.500450000000     0.803180000000    -0.112602   
C267     C      0.913230000000     0.451330000000     0.740290000000    -0.0299432  
C268     C      0.945480000000     0.497860000000     0.833310000000     0.0794311  
C269     C      0.948620000000     0.447750000000     0.832830000000     0.239291   
C270     C      0.913420000000     0.452850000000     0.710230000000    -0.038973   
C271     C      0.942010000000     0.482150000000     0.663350000000     0.0476363  
C272     C      0.940240000000     0.476390000000     0.787410000000     0.0815444  
C273     C      0.045820000000     0.463400000000     0.158100000000    -0.165769   
C274     C      0.026920000000     0.505480000000     0.335240000000     0.0707883  
C275     C      0.022350000000     0.451930000000     0.344830000000     0.071121   
C276     C      0.033610000000     0.506580000000     0.306460000000    -0.0920591  
C277     C      0.062740000000     0.510700000000     0.249470000000    -0.0383498  
C278     C      0.063930000000     0.512310000000     0.219470000000    -0.0296462  
C279     C      0.039940000000     0.480450000000     0.265150000000    -0.00387471 
C280     C      0.029300000000     0.452340000000     0.316010000000    -0.0905427  
C281     C      0.042910000000     0.483600000000     0.204540000000    -0.0195587  
C282     C      0.034370000000     0.509690000000     0.156190000000    -0.111221   
C283     C      0.021640000000     0.452990000000     0.220250000000    -0.0290033  
C284     C      0.030170000000     0.509890000000     0.126110000000     0.0812042  
C285     C      0.042120000000     0.464300000000     0.127590000000     0.236374   
C286     C      0.020010000000     0.451450000000     0.250240000000    -0.0378981  
C287     C      0.034780000000     0.479850000000     0.296350000000     0.0482541  
C288     C      0.041520000000     0.485860000000     0.172510000000     0.0816717  
C289     C      0.672790000000     0.152710000000     0.914800000000    -0.165949   
C290     C      0.887700000000     0.325740000000     0.915440000000     0.0696295  
C291     C      0.864180000000     0.313390000000     0.961970000000     0.0717876  
C292     C      0.861690000000     0.293470000000     0.907880000000    -0.0907115  
C293     C      0.781370000000     0.234450000000     0.897650000000    -0.0389632  
C294     C      0.748440000000     0.204520000000     0.894980000000    -0.0304073  
C295     C      0.806810000000     0.237350000000     0.920810000000    -0.00508993 
C296     C      0.838850000000     0.281020000000     0.955490000000    -0.0939592  
C297     C      0.740540000000     0.176790000000     0.915220000000    -0.0194632  
C298     C      0.697070000000     0.114780000000     0.921250000000    -0.110645   
C299     C      0.767370000000     0.178960000000     0.936960000000    -0.0303745  
C300     C      0.661860000000     0.088290000000     0.926030000000     0.0781444  
C301     C      0.637650000000     0.125790000000     0.920140000000     0.237815   
C302     C      0.800010000000     0.208970000000     0.939840000000    -0.0393073  
C303     C      0.836800000000     0.270790000000     0.928090000000     0.0473288  
C304     C      0.703000000000     0.147560000000     0.916230000000     0.0790696  
C305     C      0.120020000000     0.665050000000     0.052470000000    -0.164245   
C306     C      0.339070000000     0.835380000000     0.031080000000     0.0701989  
C307     C      0.315630000000     0.872680000000     0.031390000000     0.068322   
C308     C      0.305100000000     0.808110000000     0.037310000000    -0.0935351  
C309     C      0.210010000000     0.780180000000     0.021140000000    -0.0391501  
C310     C      0.177930000000     0.749520000000     0.019030000000    -0.0304975  
C311     C      0.238160000000     0.783280000000     0.041840000000    -0.0049971  
C312     C      0.280760000000     0.845660000000     0.036820000000    -0.0903945  
C313     C      0.173090000000     0.721530000000     0.037920000000    -0.0203735  
C314     C      0.140710000000     0.676830000000     0.004270000000    -0.115661   
C315     C      0.199930000000     0.725370000000     0.060130000000    -0.0301498  
C316     C      0.115940000000     0.644060000000     0.998640000000     0.080847   
C317     C      0.094150000000     0.631920000000     0.046010000000     0.23638    
C318     C      0.232300000000     0.755870000000     0.061920000000    -0.0395911  
C319     C      0.275190000000     0.812880000000     0.039530000000     0.0466396  
C320     C      0.143520000000     0.687600000000     0.031490000000     0.0802999  
C321     C      0.808630000000     0.440310000000     0.054640000000    -0.167546   
C322     C      0.647730000000     0.495300000000     0.963270000000     0.0700318  
C323     C      0.615630000000     0.436360000000     0.971820000000     0.0690911  
C324     C      0.679560000000     0.496470000000     0.976540000000    -0.0946546  
C325     C      0.747570000000     0.491640000000     0.995370000000    -0.0359754  
C326     C      0.778810000000     0.493530000000     0.010730000000    -0.0317034  
C327     C      0.712610000000     0.468530000000     0.004770000000    -0.00732411 
C328     C      0.647200000000     0.436590000000     0.985270000000    -0.0919283  
C329     C      0.775970000000     0.472180000000     0.035800000000    -0.0186126  
C330     C      0.842650000000     0.500280000000     0.051600000000    -0.1121     
C331     C      0.741090000000     0.449370000000     0.045520000000    -0.0310795  
C332     C      0.875030000000     0.498480000000     0.055040000000     0.0818072  
C333     C      0.841680000000     0.439260000000     0.057690000000     0.24207    
C334     C      0.709740000000     0.447630000000     0.030220000000    -0.0377989  
C335     C      0.679430000000     0.467040000000     0.988510000000     0.0493327  
C336     C      0.809110000000     0.471000000000     0.048980000000     0.08054    
C337     C      0.152210000000     0.486160000000     0.916910000000    -0.165047   
C338     C      0.373890000000     0.544410000000     0.992970000000     0.0701177  
C339     C      0.332390000000     0.486260000000     0.995390000000     0.0727535  
C340     C      0.345190000000     0.551230000000     0.983300000000    -0.0917426  
C341     C      0.264880000000     0.546100000000     0.971840000000    -0.0393441  
C342     C      0.232700000000     0.544410000000     0.958140000000    -0.0302816  
C343     C      0.280740000000     0.529280000000     0.961330000000    -0.00519434 
C344     C      0.303400000000     0.492070000000     0.986250000000    -0.0947234  
C345     C      0.216090000000     0.525910000000     0.933770000000    -0.0193459  
C346     C      0.168660000000     0.543640000000     0.918900000000    -0.109798   
C347     C      0.233670000000     0.511240000000     0.922200000000    -0.0304651  
C348     C      0.132180000000     0.535240000000     0.912220000000     0.0817733  
C349     C      0.115430000000     0.478170000000     0.910450000000     0.234723   
C350     C      0.265580000000     0.512870000000     0.935860000000    -0.0390315  
C351     C      0.309980000000     0.524620000000     0.978200000000     0.0482763  
C352     C      0.178760000000     0.518750000000     0.922500000000     0.0804329  
C353     C      0.805550000000     0.807030000000     0.551650000000    -0.165797   
C354     C      0.592400000000     0.632380000000     0.544510000000     0.0681636  
C355     C      0.618930000000     0.644270000000     0.499280000000     0.0677788  
C356     C      0.617860000000     0.664660000000     0.552300000000    -0.0918194  
C357     C      0.696730000000     0.724220000000     0.565120000000    -0.0390387  
C358     C      0.728890000000     0.754510000000     0.568850000000    -0.0303842  
C359     C      0.673030000000     0.720810000000     0.540540000000    -0.00511456 
C360     C      0.643870000000     0.676680000000     0.506020000000    -0.0937422  
C361     C      0.737670000000     0.782090000000     0.548290000000    -0.0192681  
C362     C      0.780370000000     0.844290000000     0.543190000000    -0.109636   
C363     C      0.712450000000     0.779370000000     0.524970000000    -0.0300176  
C364     C      0.815650000000     0.871120000000     0.539410000000     0.0778473  
C365     C      0.840720000000     0.834260000000     0.547210000000     0.240957   
C366     C      0.680620000000     0.748990000000     0.521020000000    -0.0392377  
C367     C      0.643970000000     0.687170000000     0.532870000000     0.0468494  
C368     C      0.774930000000     0.811680000000     0.548640000000     0.0794871  
C369     C      0.356250000000     0.293010000000     0.409020000000    -0.164703   
C370     C      0.138780000000     0.123900000000     0.435850000000     0.0708385  
C371     C      0.160780000000     0.086110000000     0.432350000000     0.0696129  
C372     C      0.172450000000     0.150960000000     0.428650000000    -0.0928495  
C373     C      0.267350000000     0.177950000000     0.440940000000    -0.0385358  
C374     C      0.299550000000     0.208540000000     0.442630000000    -0.0301223  
C375     C      0.238520000000     0.175060000000     0.421100000000    -0.00488831 
C376     C      0.195400000000     0.112890000000     0.425920000000    -0.0924354  
C377     C      0.303770000000     0.236610000000     0.424140000000    -0.0199958  
C378     C      0.337180000000     0.281180000000     0.457750000000    -0.113105   
C379     C      0.276200000000     0.232940000000     0.402670000000    -0.0295232  
C380     C      0.362050000000     0.313980000000     0.463200000000     0.0835466  
C381     C      0.382200000000     0.326150000000     0.415240000000     0.237217   
C382     C      0.243720000000     0.202510000000     0.401330000000    -0.0389818  
C383     C      0.201530000000     0.145780000000     0.424330000000     0.0478866  
C384     C      0.333530000000     0.270450000000     0.430370000000     0.0809325  
C385     C      0.774590000000     0.951870000000     0.467210000000    -0.164862   
C386     C      0.582820000000     0.957510000000     0.395770000000     0.0682093  
C387     C      0.550510000000     0.901750000000     0.416280000000     0.061754   
C388     C      0.614620000000     0.955210000000     0.396280000000    -0.0917828  
C389     C      0.678540000000     0.943290000000     0.394780000000    -0.0388721  
C390     C      0.713830000000     0.948370000000     0.402440000000    -0.0295673  
C391     C      0.650640000000     0.926150000000     0.414350000000    -0.00404654 
C392     C      0.582120000000     0.898620000000     0.417370000000    -0.0943324  
C393     C      0.722150000000     0.936230000000     0.429820000000    -0.0196455  
C394     C      0.783720000000     0.945330000000     0.419060000000    -0.112429   
C395     C      0.693770000000     0.917530000000     0.448790000000    -0.0297358  
C396     C      0.819820000000     0.953850000000     0.427590000000     0.0798294  
C397     C      0.811230000000     0.960250000000     0.475540000000     0.236295   
C398     C      0.658470000000     0.912600000000     0.441180000000    -0.0396938  
C399     C      0.615110000000     0.926090000000     0.408430000000     0.0440904  
C400     C      0.760500000000     0.944200000000     0.438880000000     0.0796379  
C401     C      0.199690000000     0.015240000000     0.553130000000    -0.163563   
C402     C      0.431290000000     0.068340000000     0.538990000000     0.066962   
C403     C      0.398010000000     0.019100000000     0.569300000000     0.0722294  
C404     C      0.403520000000     0.076790000000     0.539120000000    -0.0932702  
C405     C      0.320460000000     0.048840000000     0.519340000000    -0.0382086  
C406     C      0.284050000000     0.041360000000     0.513860000000    -0.0299365  
C407     C      0.337480000000     0.056280000000     0.547040000000    -0.00496142 
C408     C      0.370720000000     0.027460000000     0.570970000000    -0.0925408  
C409     C      0.263830000000     0.041870000000     0.535810000000    -0.0185101  
C410     C      0.208730000000     0.033350000000     0.502730000000    -0.110678   
C411     C      0.281940000000     0.051540000000     0.563120000000    -0.0295537  
C412     C      0.171140000000     0.020550000000     0.497790000000     0.0813579  
C413     C      0.161760000000     0.003500000000     0.547830000000     0.237586   
C414     C      0.318140000000     0.058050000000     0.568800000000    -0.0395512  
C415     C      0.371980000000     0.055150000000     0.554020000000     0.046794   
C416     C      0.223740000000     0.030540000000     0.530590000000     0.0786895  
C417     C      0.989180000000     0.818980000000     0.427540000000    -0.17627    
C418     C      0.997960000000     0.635890000000     0.478040000000     0.0458111  
C419     C      0.014970000000     0.640990000000     0.430110000000     0.0638751  
C420     C      0.003320000000     0.668400000000     0.474690000000    -0.0668763  
C421     C      0.989660000000     0.725870000000     0.454460000000    -0.0488248  
C422     C      0.991660000000     0.757120000000     0.451360000000    -0.0348363  
C423     C      0.016900000000     0.721350000000     0.444150000000     0.00806323 
C424     C      0.020630000000     0.673820000000     0.426020000000    -0.0837905  
C425     C      0.020840000000     0.784920000000     0.437700000000    -0.0146641  
C426     C      0.053200000000     0.847390000000     0.441730000000    -0.112263   
C427     C      0.048340000000     0.780650000000     0.427400000000    -0.0286789  
C428     C      0.050670000000     0.876140000000     0.444560000000     0.0812697  
C429     C      0.987170000000     0.847820000000     0.430990000000     0.239128   
C430     C      0.046240000000     0.749040000000     0.430410000000    -0.0425296  
C431     C      0.014280000000     0.687720000000     0.448360000000     0.0349504  
C432     C      0.021660000000     0.817820000000     0.434750000000     0.0879665  
C433     C      0.962860000000     0.286710000000     0.485370000000    -0.166414   
C434     C      0.986200000000     0.113050000000     0.536740000000     0.0646096  
C435     C      0.922180000000     0.080830000000     0.528180000000     0.0683974  
C436     C      0.983250000000     0.141340000000     0.538980000000    -0.0994082  
C437     C      0.920880000000     0.176910000000     0.538160000000    -0.0385937  
C438     C      0.921660000000     0.208000000000     0.533270000000    -0.0307211  
C439     C      0.948560000000     0.172650000000     0.528150000000    -0.00579064 
C440     C      0.918300000000     0.109330000000     0.529320000000    -0.0901402  
C441     C      0.949900000000     0.235200000000     0.518020000000    -0.0194305  
C442     C      0.944310000000     0.283200000000     0.533040000000    -0.110251   
C443     C      0.977290000000     0.230630000000     0.508050000000    -0.0306618  
C444     C      0.949810000000     0.315870000000     0.527530000000     0.0757749  
C445     C      0.968830000000     0.319710000000     0.480330000000     0.235435   
C446     C      0.976450000000     0.199900000000     0.512790000000    -0.038945   
C447     C      0.949490000000     0.140470000000     0.533220000000     0.048499   
C448     C      0.951500000000     0.268440000000     0.512020000000     0.0783719  
C449     C      0.925880000000     0.931690000000     0.816750000000    -0.164763   
C450     C      0.985140000000     0.974860000000     0.638370000000     0.0631466  
C451     C      0.925130000000     0.965930000000     0.625450000000     0.0699945  
C452     C      0.979590000000     0.973060000000     0.667610000000    -0.100965   
C453     C      0.967140000000     0.991540000000     0.723990000000    -0.0392006  
C454     C      0.963810000000     0.989880000000     0.753670000000    -0.0306321  
C455     C      0.940700000000     0.966270000000     0.707220000000    -0.00666783 
C456     C      0.918460000000     0.963430000000     0.654720000000    -0.0928072  
C457     C      0.934130000000     0.962750000000     0.767400000000    -0.019949   
C458     C      0.939560000000     0.988970000000     0.812610000000    -0.1135     
C459     C      0.907370000000     0.937560000000     0.750620000000    -0.0302377  
C460     C      0.942780000000     0.988520000000     0.842660000000     0.0791217  
C461     C      0.929440000000     0.931750000000     0.847320000000     0.236306   
C462     C      0.910460000000     0.939480000000     0.720690000000    -0.0383788  
C463     C      0.946050000000     0.967360000000     0.676110000000     0.0500962  
C464     C      0.932240000000     0.960770000000     0.799280000000     0.0799857  
C465     C      0.060690000000     0.031200000000     0.160690000000    -0.164524   
C466     C      0.051770000000     0.987770000000     0.353010000000     0.068692   
C467     C      0.993920000000     0.983680000000     0.339230000000     0.0490422  
C468     C      0.059550000000     0.991660000000     0.323890000000    -0.0865891  
C469     C      0.057880000000     0.980210000000     0.260130000000    -0.0398574  
C470     C      0.062270000000     0.982750000000     0.230420000000    -0.0285513  
C471     C      0.041700000000     0.996740000000     0.270860000000     2.79877e-05
C472     C      0.000830000000     0.987560000000     0.310040000000    -0.0686242  
C473     C      0.050720000000     0.001980000000     0.210830000000    -0.0193551  
C474     C      0.041590000000     0.972620000000     0.166530000000    -0.111701   
C475     C      0.035780000000     0.019450000000     0.221750000000    -0.0277215  
C476     C      0.038580000000     0.972140000000     0.136510000000     0.0841015  
C477     C      0.057540000000     0.030260000000     0.130280000000     0.240912   
C478     C      0.031350000000     0.016870000000     0.251370000000    -0.0395533  
C479     C      0.034080000000     0.991980000000     0.302000000000     0.0391774  
C480     C      0.051780000000     0.002120000000     0.179000000000     0.0825771  
C481     C      0.624250000000     0.669100000000     0.030440000000    -0.164446   
C482     C      0.837830000000     0.831150000000     0.963070000000     0.0694831  
C483     C      0.812040000000     0.860270000000     0.981260000000     0.0709388  
C484     C      0.806540000000     0.800690000000     0.969500000000    -0.0926102  
C485     C      0.754930000000     0.748210000000     0.015470000000    -0.0408373  
C486     C      0.726500000000     0.718980000000     0.027720000000    -0.0293993  
C487     C      0.747440000000     0.768630000000     0.994130000000    -0.00369082 
C488     C      0.780060000000     0.830510000000     0.987070000000    -0.0928832  
C489     C      0.689870000000     0.709010000000     0.018370000000    -0.0208247  
C490     C      0.666660000000     0.648200000000     0.032540000000    -0.113497   
C491     C      0.682490000000     0.730030000000     0.997360000000    -0.0281103  
C492     C      0.637760000000     0.615930000000     0.035780000000     0.0800185  
C493     C      0.595160000000     0.635890000000     0.033690000000     0.236403   
C494     C      0.711010000000     0.759740000000     0.985600000000    -0.0400029  
C495     C      0.777830000000     0.800270000000     0.982490000000     0.0474641  
C496     C      0.660040000000     0.675300000000     0.028040000000     0.0793703  
C497     C      0.184280000000     0.161980000000     0.004720000000    -0.168043   
C498     C      0.387330000000     0.324520000000     0.929960000000     0.072076   
C499     C      0.342520000000     0.341780000000     0.927030000000     0.0728379  
C500     C      0.360440000000     0.291090000000     0.935090000000    -0.0917017  
C501     C      0.305340000000     0.231350000000     0.971800000000    -0.0385912  
C502     C      0.278120000000     0.202280000000     0.985630000000    -0.0283597  
C503     C      0.296030000000     0.249560000000     0.949110000000    -0.0042221  
C504     C      0.315140000000     0.308970000000     0.931860000000    -0.0943298  
C505     C      0.241180000000     0.191380000000     0.977400000000    -0.0211092  
C506     C      0.209300000000     0.130080000000     0.989060000000    -0.114245   
C507     C      0.231870000000     0.208750000000     0.954210000000    -0.0291145  
C508     C      0.177470000000     0.101000000000     0.996490000000     0.0848837  
C509     C      0.152610000000     0.132090000000     0.012910000000     0.240282   
C510     C      0.258970000000     0.237250000000     0.939980000000    -0.039002   
C511     C      0.324050000000     0.283220000000     0.937610000000     0.048432   
C512     C      0.211960000000     0.160890000000     0.991620000000     0.0839824  
C513     C      0.861460000000     0.996010000000     0.072840000000    -0.169729   
C514     C      0.659110000000     0.004660000000     0.039940000000     0.0680019  
C515     C      0.663690000000     0.995040000000     0.992160000000     0.0706068  
C516     C      0.694850000000     0.010790000000     0.047380000000    -0.0915616  
C517     C      0.779030000000     0.040830000000     0.048940000000    -0.0395212  
C518     C      0.814030000000     0.044660000000     0.056310000000    -0.0305864  
C519     C      0.752370000000     0.012970000000     0.034760000000    -0.00495681 
C520     C      0.699220000000     0.000440000000     0.999030000000    -0.0910105  
C521     C      0.822510000000     0.020270000000     0.050210000000    -0.0206803  
C522     C      0.890910000000     0.051280000000     0.048730000000    -0.11632    
C523     C      0.795780000000     0.992480000000     0.036080000000    -0.0317712  
C524     C      0.923680000000     0.050050000000     0.050930000000     0.0723471  
C525     C      0.894750000000     0.995500000000     0.075040000000     0.238354   
C526     C      0.761200000000     0.988970000000     0.028280000000    -0.03879    
C527     C      0.715200000000     0.008460000000     0.026880000000     0.0461495  
C528     C      0.858960000000     0.023170000000     0.058150000000     0.0770341  
C529     C      0.268640000000     0.934760000000     0.959010000000    -0.16443    
C530     C      0.086910000000     0.944900000000     0.897480000000     0.0728453  
C531     C      0.050100000000     0.891550000000     0.921030000000     0.0695325  
C532     C      0.113130000000     0.936140000000     0.893190000000    -0.09162    
C533     C      0.168590000000     0.914580000000     0.888200000000    -0.0389191  
C534     C      0.204130000000     0.919900000000     0.895020000000    -0.0295736  
C535     C      0.142650000000     0.901170000000     0.909470000000    -0.0037843  
C536     C      0.076490000000     0.882120000000     0.917810000000    -0.0904966  
C537     C      0.214530000000     0.911580000000     0.923240000000    -0.0191443  
C538     C      0.277280000000     0.923290000000     0.912570000000    -0.110566   
C539     C      0.187550000000     0.895120000000     0.943680000000    -0.0297814  
C540     C      0.314420000000     0.936060000000     0.920270000000     0.0771733  
C541     C      0.306290000000     0.947360000000     0.966550000000     0.236222   
C542     C      0.152060000000     0.890050000000     0.936900000000    -0.0388642  
C543     C      0.109520000000     0.905400000000     0.905320000000     0.0467558  
C544     C      0.253790000000     0.922650000000     0.931880000000     0.0787983  
C545     C      0.972460000000     0.789000000000     0.020060000000    -0.16547    
C546     C      0.938370000000     0.590320000000     0.016400000000     0.0713766  
C547     C      0.936530000000     0.601010000000     0.965370000000     0.0689781  
C548     C      0.931150000000     0.616050000000     0.019620000000    -0.0944396  
C549     C      0.914300000000     0.682400000000     0.976270000000    -0.0397615  
C550     C      0.918180000000     0.713940000000     0.978080000000    -0.0288106  
C551     C      0.928210000000     0.667780000000     0.998830000000    -0.00356443 
C552     C      0.931200000000     0.628110000000     0.967870000000    -0.0920735  
C553     C      0.934740000000     0.731270000000     0.003020000000    -0.0207955  
C554     C      0.919980000000     0.777700000000     0.987580000000    -0.112278   
C555     C      0.946090000000     0.715510000000     0.026430000000    -0.0294466  
C556     C      0.929330000000     0.811180000000     0.986380000000     0.0822904  
C557     C      0.980530000000     0.822520000000     0.019510000000     0.231655   
C558     C      0.943640000000     0.684670000000     0.024140000000    -0.0402809  
C559     C      0.929210000000     0.636510000000     0.995340000000     0.0476709  
C560     C      0.942070000000     0.766230000000     0.003940000000     0.0787297  
C561     C      0.042350000000     0.333640000000     0.944710000000    -0.167356   
C562     C      0.055810000000     0.149550000000     0.997140000000     0.0740595  
C563     C      0.031050000000     0.145490000000     0.948640000000     0.0705742  
C564     C      0.064480000000     0.182840000000     0.995770000000    -0.09362    
C565     C      0.048120000000     0.239030000000     0.994890000000    -0.0376562  
C566     C      0.048960000000     0.269530000000     0.994760000000    -0.0281276  
C567     C      0.058790000000     0.231080000000     0.970810000000    -0.00507282 
C568     C      0.039080000000     0.178860000000     0.946620000000    -0.0936385  
C569     C      0.060500000000     0.292840000000     0.970530000000    -0.0203588  
C570     C      0.065660000000     0.340720000000     0.994180000000    -0.112745   
C571     C      0.072110000000     0.285330000000     0.946670000000    -0.0296451  
C572     C      0.057030000000     0.366170000000     0.994300000000     0.0814128  
C573     C      0.034080000000     0.359660000000     0.945120000000     0.24021    
C574     C      0.071170000000     0.254610000000     0.946780000000    -0.0391921  
C575     C      0.055080000000     0.197560000000     0.970680000000     0.0489311  
C576     C      0.057220000000     0.323440000000     0.969530000000     0.082406   
H1       H      0.015920000000     0.987880000000     0.920370000000     0.199424   
H2       H      0.960220000000     0.033160000000     0.992730000000     0.195475   
H3       H      0.932460000000     0.903500000000     0.011380000000     0.195112   
H4       H      0.071640000000     0.001970000000     0.032420000000     0.19786    
H5       H      0.936430000000     0.048870000000     0.942890000000     0.133402   
H6       H      0.880380000000     0.989540000000     0.971640000000     0.202859   
H7       H      0.880770000000     0.915940000000     0.050560000000     0.136879   
H8       H      0.977980000000     0.889100000000     0.085850000000     0.20439    
H9       H      0.062920000000     0.925530000000     0.034390000000     0.149899   
H10      H      0.123810000000     0.993050000000     0.006560000000     0.196353   
H11      H      0.093490000000     0.049020000000     0.923920000000     0.129445   
H12      H      0.039430000000     0.059050000000     0.897300000000     0.187146   
H13      H      0.943200000000     0.896080000000     0.073690000000     0.188692   
H14      H      0.104920000000     0.961750000000     0.984850000000     0.202395   
H15      H      0.008140000000     0.071800000000     0.890840000000     0.202513   
H16      H      0.883370000000     0.999620000000     0.005430000000     0.199237   
H17      H      0.900680000000     0.926100000000     0.475180000000     0.19767    
H18      H      0.022850000000     0.028850000000     0.428510000000     0.193949   
H19      H      0.003310000000     0.026410000000     0.542570000000     0.195582   
H20      H      0.032160000000     0.932730000000     0.509690000000     0.200703   
H21      H      0.972310000000     0.037380000000     0.399330000000     0.130639   
H22      H      0.991230000000     0.087120000000     0.446420000000     0.199309   
H23      H      0.080220000000     0.084370000000     0.524400000000     0.130797   
H24      H      0.072740000000     0.042820000000     0.572470000000     0.187784   
H25      H      0.007370000000     0.920450000000     0.578960000000     0.145477   
H26      H      0.958160000000     0.867250000000     0.548610000000     0.207698   
H27      H      0.898890000000     0.869250000000     0.455360000000     0.1293     
H28      H      0.904480000000     0.912140000000     0.409090000000     0.193119   
H29      H      0.082520000000     0.014190000000     0.590540000000     0.209737   
H30      H      0.987260000000     0.867570000000     0.526650000000     0.197246   
H31      H      0.892640000000     0.939210000000     0.390530000000     0.202239   
H32      H      0.030370000000     0.096820000000     0.432120000000     0.195781   
H33      H      0.965460000000     0.446840000000     0.047980000000     0.196654   
H34      H      0.917530000000     0.437490000000     0.934070000000     0.202431   
H35      H      0.015050000000     0.560480000000     0.969530000000     0.198686   
H36      H      0.062190000000     0.470080000000     0.968240000000     0.202414   
H37      H      0.844930000000     0.391630000000     0.990590000000     0.147238   
H38      H      0.875920000000     0.480250000000     0.943510000000     0.206269   
H39      H      0.001780000000     0.568470000000     0.907700000000     0.135437   
H40      H      0.086390000000     0.591170000000     0.921450000000     0.192917   
H41      H      0.124440000000     0.542200000000     0.998140000000     0.14217    
H42      H      0.103670000000     0.468620000000     0.018180000000     0.199689   
H43      H      0.982200000000     0.383510000000     0.043580000000     0.128077   
H44      H      0.919020000000     0.382160000000     0.049570000000     0.189704   
H45      H      0.122930000000     0.595250000000     0.942590000000     0.198885   
H46      H      0.098500000000     0.475420000000     0.051360000000     0.210422   
H47      H      0.877160000000     0.364670000000     0.033200000000     0.199999   
H48      H      0.884060000000     0.488040000000     0.908240000000     0.20333    
H49      H      0.916280000000     0.455920000000     0.522870000000     0.198372   
H50      H      0.947220000000     0.459370000000     0.411200000000     0.195535   
H51      H      0.043090000000     0.560440000000     0.475750000000     0.19884    
H52      H      0.030060000000     0.436650000000     0.505270000000     0.208768   
H53      H      0.871270000000     0.443420000000     0.407230000000     0.144643   
H54      H      0.944170000000     0.539710000000     0.395350000000     0.2073     
H55      H      0.074220000000     0.570550000000     0.421300000000     0.13057    
H56      H      0.131310000000     0.564470000000     0.480420000000     0.192945   
H57      H      0.081100000000     0.490150000000     0.552880000000     0.13936    
H58      H      0.017840000000     0.410030000000     0.563160000000     0.202081   
H59      H      0.893780000000     0.384860000000     0.534500000000     0.13048    
H60      H      0.843830000000     0.395760000000     0.490830000000     0.196915   
H61      H      0.139440000000     0.543510000000     0.509650000000     0.200324   
H62      H      0.014070000000     0.435400000000     0.583610000000     0.203303   
H63      H      0.828600000000     0.408310000000     0.459690000000     0.209148   
H64      H      0.957420000000     0.522530000000     0.372940000000     0.199336   
H65      H      0.475560000000     0.932300000000     0.925870000000     0.193923   
H66      H      0.455920000000     0.931640000000     0.039680000000     0.20133    
H67      H      0.577650000000     0.034320000000     0.992110000000     0.197261   
H68      H      0.445410000000     0.025850000000     0.956790000000     0.200294   
H69      H      0.447030000000     0.853270000000     0.020300000000     0.1397     
H70      H      0.537230000000     0.924500000000     0.057440000000     0.209802   
H71      H      0.570330000000     0.047610000000     0.053360000000     0.129665   
H72      H      0.583850000000     0.096680000000     0.010160000000     0.186662   
H73      H      0.517850000000     0.083290000000     0.917180000000     0.149312   
H74      H      0.424680000000     0.027100000000     0.899070000000     0.198207   
H75      H      0.404970000000     0.916430000000     0.900750000000     0.125607   
H76      H      0.399040000000     0.867640000000     0.942420000000     0.187773   
H77      H      0.570590000000     0.120500000000     0.987690000000     0.206853   
H78      H      0.462500000000     0.036680000000     0.882710000000     0.201347   
H79      H      0.407350000000     0.842080000000     0.967000000000     0.195212   
H80      H      0.525530000000     0.937700000000     0.084290000000     0.203151   
H81      H      0.408990000000     0.957730000000     0.437590000000     0.197686   
H82      H      0.467740000000     0.971130000000     0.549010000000     0.202879   
H83      H      0.517900000000     0.922710000000     0.475290000000     0.201544   
H84      H      0.550120000000     0.053530000000     0.456630000000     0.195351   
H85      H      0.387120000000     0.913720000000     0.547340000000     0.129364   
H86      H      0.440610000000     0.895180000000     0.569830000000     0.191212   
H87      H      0.567860000000     0.945470000000     0.541670000000     0.140511   
H88      H      0.606700000000     0.972230000000     0.492210000000     0.198632   
H89      H      0.596990000000     0.037970000000     0.415020000000     0.131569   
H90      H      0.536220000000     0.061620000000     0.393200000000     0.186701   
H91      H      0.422830000000     0.037730000000     0.436540000000     0.14352    
H92      H      0.360500000000     0.970400000000     0.463950000000     0.203463   
H93      H      0.586750000000     0.947380000000     0.465130000000     0.197884   
H94      H      0.500670000000     0.067760000000     0.381910000000     0.201099   
H95      H      0.380520000000     0.001060000000     0.486320000000     0.200974   
H96      H      0.477210000000     0.890480000000     0.580530000000     0.208521   
H97      H      0.424110000000     0.460590000000     0.022810000000     0.194146   
H98      H      0.451110000000     0.461020000000     0.910540000000     0.196553   
H99      H      0.550310000000     0.562640000000     0.973210000000     0.200442   
H100     H      0.535040000000     0.437880000000     0.003350000000     0.204361   
H101     H      0.370500000000     0.446360000000     0.910870000000     0.136735   
H102     H      0.449560000000     0.541630000000     0.893950000000     0.209226   
H103     H      0.579380000000     0.570460000000     0.917350000000     0.131187   
H104     H      0.637420000000     0.564590000000     0.975780000000     0.192727   
H105     H      0.590200000000     0.493480000000     0.049350000000     0.137776   
H106     H      0.526080000000     0.441730000000     0.079840000000     0.201421   
H107     H      0.400760000000     0.388840000000     0.035530000000     0.12968    
H108     H      0.352250000000     0.399910000000     0.994220000000     0.189659   
H109     H      0.645850000000     0.544200000000     0.005300000000     0.198802   
H110     H      0.520850000000     0.409660000000     0.062850000000     0.20616    
H111     H      0.334840000000     0.410480000000     0.963230000000     0.196443   
H112     H      0.460970000000     0.522620000000     0.871940000000     0.208299   
H113     H      0.464640000000     0.448280000000     0.548390000000     0.193593   
H114     H      0.414040000000     0.438200000000     0.435040000000     0.196198   
H115     H      0.513490000000     0.561440000000     0.469290000000     0.197164   
H116     H      0.558930000000     0.469640000000     0.467100000000     0.201621   
H117     H      0.356330000000     0.429420000000     0.472450000000     0.135919   
H118     H      0.375150000000     0.490730000000     0.440810000000     0.199437   
H119     H      0.498520000000     0.568890000000     0.407660000000     0.130812   
H120     H      0.585800000000     0.590010000000     0.419000000000     0.193637   
H121     H      0.630670000000     0.553790000000     0.485640000000     0.13963    
H122     H      0.600410000000     0.465100000000     0.517000000000     0.207192   
H123     H      0.478810000000     0.393200000000     0.555290000000     0.130114   
H124     H      0.404750000000     0.364390000000     0.533610000000     0.199328   
H125     H      0.621840000000     0.594250000000     0.440910000000     0.194183   
H126     H      0.599270000000     0.481660000000     0.546580000000     0.205892   
H127     H      0.397210000000     0.387540000000     0.554010000000     0.196113   
H128     H      0.379670000000     0.477590000000     0.410390000000     0.20189    
H129     H      0.524780000000     0.529260000000     0.615770000000     0.0249392  
H130     H      0.520060000000     0.429850000000     0.858340000000     0.0235176  
H131     H      0.587770000000     0.533150000000     0.707140000000     0.0383603  
H132     H      0.503780000000     0.426360000000     0.760280000000     0.0351516  
H133     H      0.532630000000     0.429310000000     0.809020000000     0.0568906  
H134     H      0.505900000000     0.429230000000     0.707720000000     0.0385003  
H135     H      0.542890000000     0.526840000000     0.788820000000     0.0705427  
H136     H      0.533840000000     0.526730000000     0.668160000000     0.0523185  
H137     H      0.552600000000     0.443180000000     0.666730000000     0.0527467  
H138     H      0.587060000000     0.530130000000     0.759700000000     0.0357678  
H139     H      0.544210000000     0.446570000000     0.614340000000     0.0269721  
H140     H      0.537120000000     0.551160000000     0.824390000000     0.145514   
H141     H      0.466660000000     0.535520000000     0.098960000000     0.0279962  
H142     H      0.458520000000     0.434040000000     0.345080000000     0.0287802  
H143     H      0.414990000000     0.503180000000     0.191870000000     0.0387461  
H144     H      0.500080000000     0.477180000000     0.257940000000     0.0365779  
H145     H      0.458200000000     0.438730000000     0.293290000000     0.0579263  
H146     H      0.503940000000     0.480750000000     0.205830000000     0.0386039  
H147     H      0.441330000000     0.523760000000     0.289130000000     0.0705456  
H148     H      0.462070000000     0.538010000000     0.150280000000     0.053301   
H149     H      0.457490000000     0.442170000000     0.168570000000     0.0530379  
H150     H      0.410370000000     0.498830000000     0.244430000000     0.0354986  
H151     H      0.461790000000     0.440090000000     0.117950000000     0.0259733  
H152     H      0.434460000000     0.538060000000     0.331280000000     0.14654    
H153     H      0.419940000000     0.585960000000     0.447140000000     0.0272893  
H154     H      0.420530000000     0.818380000000     0.451100000000     0.0262258  
H155     H      0.471080000000     0.688240000000     0.526900000000     0.038375   
H156     H      0.370940000000     0.703520000000     0.473770000000     0.0343062  
H157     H      0.408380000000     0.761550000000     0.454260000000     0.0574741  
H158     H      0.371340000000     0.650810000000     0.472470000000     0.0367144  
H159     H      0.437390000000     0.764950000000     0.545520000000     0.0703921  
H160     H      0.407640000000     0.631290000000     0.451570000000     0.0521807  
H161     H      0.440170000000     0.629810000000     0.542580000000     0.0515131  
H162     H      0.470560000000     0.740310000000     0.528290000000     0.0359004  
H163     H      0.453370000000     0.585620000000     0.537350000000     0.0260359  
H164     H      0.452730000000     0.812590000000     0.564630000000     0.14244    
H165     H      0.559880000000     0.136980000000     0.507200000000     0.0277782  
H166     H      0.505800000000     0.360510000000     0.428430000000     0.0295391  
H167     H      0.533520000000     0.218340000000     0.509920000000     0.0384023  
H168     H      0.560070000000     0.295550000000     0.420720000000     0.0348498  
H169     H      0.515390000000     0.313920000000     0.425090000000     0.0581654  
H170     H      0.558460000000     0.241950000000     0.419660000000     0.0370408  
H171     H      0.575660000000     0.331490000000     0.507460000000     0.070354   
H172     H      0.572160000000     0.193980000000     0.505320000000     0.0521204  
H173     H      0.511960000000     0.182320000000     0.422600000000     0.0511544  
H174     H      0.535090000000     0.271460000000     0.510970000000     0.0365986  
H175     H      0.500680000000     0.125280000000     0.424730000000     0.0207429  
H176     H      0.583180000000     0.375310000000     0.529060000000     0.145074   
H177     H      0.466850000000     0.977620000000     0.834480000000     0.027459   
H178     H      0.532150000000     0.945730000000     0.616860000000     0.0186837  
H179     H      0.590240000000     0.037720000000     0.760340000000     0.0389266  
H180     H      0.495780000000     0.948040000000     0.701930000000     0.0353447  
H181     H      0.536970000000     0.945330000000     0.668640000000     0.0561883  
H182     H      0.489200000000     0.945080000000     0.753660000000     0.0386458  
H183     H      0.563220000000     0.048280000000     0.661690000000     0.0706891  
H184     H      0.477550000000     0.980700000000     0.784120000000     0.0526604  
H185     H      0.587390000000     0.999420000000     0.808040000000     0.0532428  
H186     H      0.596990000000     0.040700000000     0.708170000000     0.0358841  
H187     H      0.575880000000     0.995920000000     0.858810000000     0.028906   
H188     H      0.568060000000     0.073560000000     0.616650000000     0.145714   
H189     H      0.514130000000     0.988900000000     0.122250000000     0.0247417  
H190     H      0.446780000000     0.010940000000     0.342460000000     0.0210611  
H191     H      0.490570000000     0.016730000000     0.205030000000     0.0387003  
H192     H      0.384330000000     0.918180000000     0.249390000000     0.0359006  
H193     H      0.443190000000     0.012700000000     0.290700000000     0.0565614  
H194     H      0.390920000000     0.923180000000     0.196990000000     0.0384553  
H195     H      0.417660000000     0.910020000000     0.295820000000     0.0708263  
H196     H      0.503690000000     0.984490000000     0.172810000000     0.0521756  
H197     H      0.392210000000     0.961510000000     0.150240000000     0.0526908  
H198     H      0.484270000000     0.011690000000     0.256980000000     0.035638   
H199     H      0.403460000000     0.966260000000     0.099190000000     0.0274382  
H200     H      0.412570000000     0.883790000000     0.340510000000     0.145969   
H201     H      0.524500000000     0.632440000000     0.908570000000     0.0275008  
H202     H      0.465250000000     0.845550000000     0.928640000000     0.0136721  
H203     H      0.572750000000     0.748630000000     0.914240000000     0.0377802  
H204     H      0.481740000000     0.763080000000     0.960980000000     0.0351064  
H205     H      0.469190000000     0.796670000000     0.922240000000     0.055548   
H206     H      0.478900000000     0.709180000000     0.966000000000     0.0376397  
H207     H      0.585940000000     0.851440000000     0.936710000000     0.0700384  
H208     H      0.533670000000     0.689220000000     0.901020000000     0.052042   
H209     H      0.513140000000     0.683960000000     0.990660000000     0.0510024  
H210     H      0.574680000000     0.803270000000     0.908080000000     0.0353974  
H211     H      0.502710000000     0.627590000000     0.997200000000     0.0350044  
H212     H      0.609850000000     0.906670000000     0.942330000000     0.144889   
H213     H      0.398580000000     0.058150000000     0.016300000000     0.0271505  
H214     H      0.471720000000     0.333230000000     0.957090000000     0.0243124  
H215     H      0.401720000000     0.157050000000     0.046300000000     0.0381658  
H216     H      0.494270000000     0.250690000000     0.985680000000     0.0347579  
H217     H      0.460590000000     0.276860000000     0.962480000000     0.0558664  
H218     H      0.492990000000     0.197370000000     0.991630000000     0.0399567  
H219     H      0.440180000000     0.269210000000     0.052120000000     0.0694521  
H220     H      0.391450000000     0.107410000000     0.018960000000     0.0519152  
H221     H      0.508350000000     0.166580000000     0.031910000000     0.0513856  
H222     H      0.402040000000     0.210970000000     0.039320000000     0.034573   
H223     H      0.514450000000     0.118030000000     0.028190000000     0.0215484  
H224     H      0.442090000000     0.313950000000     0.068150000000     0.145385   
H225     H      0.626490000000     0.125390000000     0.515020000000     0.0270491  
H226     H      0.915670000000     0.328800000000     0.435290000000     0.0361453  
H227     H      0.745810000000     0.211920000000     0.513390000000     0.037658   
H228     H      0.795420000000     0.219830000000     0.419090000000     0.0361425  
H229     H      0.871160000000     0.270450000000     0.446610000000     0.0593358  
H230     H      0.745270000000     0.166740000000     0.437220000000     0.0379062  
H231     H      0.785050000000     0.295930000000     0.434250000000     0.0718124  
H232     H      0.682960000000     0.176700000000     0.505730000000     0.0511469  
H233     H      0.725110000000     0.120570000000     0.471120000000     0.0520743  
H234     H      0.794730000000     0.265240000000     0.494180000000     0.0375013  
H235     H      0.667950000000     0.070380000000     0.479350000000     0.0261965  
H236     H      0.801380000000     0.349260000000     0.417780000000     0.142762   
H237     H      0.133980000000     0.597060000000     0.549650000000     0.0187602  
H238     H      0.344250000000     0.830530000000     0.440300000000     0.0259835  
H239     H      0.149650000000     0.735070000000     0.510570000000     0.0377443  
H240     H      0.262100000000     0.737630000000     0.484710000000     0.0350711  
H241     H      0.288310000000     0.778660000000     0.448470000000     0.0563053  
H242     H      0.213120000000     0.685810000000     0.503670000000     0.0359625  
H243     H      0.250690000000     0.828880000000     0.496410000000     0.0716809  
H244     H      0.182750000000     0.653680000000     0.541780000000     0.0503897  
H245     H      0.102490000000     0.683940000000     0.508260000000     0.0525017  
H246     H      0.196430000000     0.785610000000     0.487470000000     0.0345351  
H247     H      0.054810000000     0.627970000000     0.519810000000     0.0287626  
H248     H      0.283270000000     0.884190000000     0.494050000000     0.147387   
H249     H      0.586770000000     0.447920000000     0.419260000000     0.0261323  
H250     H      0.891920000000     0.557960000000     0.499320000000     0.0223275  
H251     H      0.676370000000     0.483640000000     0.488900000000     0.0380957  
H252     H      0.795650000000     0.557630000000     0.445520000000     0.0359425  
H253     H      0.840430000000     0.568960000000     0.490740000000     0.0566448  
H254     H      0.739850000000     0.555110000000     0.420930000000     0.037933   
H255     H      0.766440000000     0.463170000000     0.496400000000     0.0710689  
H256     H      0.646950000000     0.458900000000     0.438750000000     0.0533346  
H257     H      0.683470000000     0.564590000000     0.428140000000     0.0489325  
H258     H      0.731850000000     0.486600000000     0.513710000000     0.0352831  
H259     H      0.622450000000     0.552670000000     0.408520000000     0.0151934  
H260     H      0.791520000000     0.429840000000     0.507570000000     0.143189   
H261     H      0.400930000000     0.526250000000     0.553340000000     0.0269742  
H262     H      0.144520000000     0.519970000000     0.458210000000     0.0176663  
H263     H      0.303980000000     0.516940000000     0.504060000000     0.0388071  
H264     H      0.183240000000     0.433890000000     0.540980000000     0.0361377  
H265     H      0.199820000000     0.523690000000     0.481690000000     0.053997   
H266     H      0.238740000000     0.437320000000     0.566490000000     0.0376919  
H267     H      0.147490000000     0.416600000000     0.495520000000     0.0706434  
H268     H      0.344740000000     0.529640000000     0.549340000000     0.0523286  
H269     H      0.282840000000     0.422060000000     0.553040000000     0.053017   
H270     H      0.248840000000     0.513230000000     0.478410000000     0.0347684  
H271     H      0.339140000000     0.419720000000     0.556860000000     0.0209258  
H272     H      0.088680000000     0.388620000000     0.479160000000     0.147372   
H273     H      0.947030000000     0.432950000000     0.618150000000     0.0242189  
H274     H      0.946300000000     0.517520000000     0.844430000000     0.0245626  
H275     H      0.895040000000     0.430630000000     0.699310000000     0.0381168  
H276     H      0.978900000000     0.531310000000     0.750750000000     0.0357423  
H277     H      0.938070000000     0.521270000000     0.792290000000     0.0571361  
H278     H      0.979770000000     0.533850000000     0.698130000000     0.0375342  
H279     H      0.943190000000     0.430890000000     0.790410000000     0.0711057  
H280     H      0.938020000000     0.433150000000     0.668040000000     0.051467   
H281     H      0.948160000000     0.531310000000     0.650290000000     0.0518559  
H282     H      0.894880000000     0.428020000000     0.751860000000     0.0356497  
H283     H      0.957990000000     0.530750000000     0.599920000000     0.025916   
H284     H      0.949310000000     0.405500000000     0.833180000000     0.145923   
H285     H      0.018020000000     0.430120000000     0.359260000000     0.0298372  
H286     H      0.024000000000     0.528610000000     0.114590000000     0.0297749  
H287     H      0.001880000000     0.427810000000     0.261480000000     0.0395082  
H288     H      0.080970000000     0.536110000000     0.207870000000     0.0361451  
H289     H      0.030840000000     0.527520000000     0.166670000000     0.0589058  
H290     H      0.079200000000     0.533380000000     0.260290000000     0.0385531  
H291     H      0.051880000000     0.445050000000     0.170570000000     0.0713832  
H292     H      0.030330000000     0.431220000000     0.309250000000     0.0535702  
H293     H      0.036820000000     0.528080000000     0.292060000000     0.0526436  
H294     H      0.005000000000     0.430520000000     0.209160000000     0.0380812  
H295     H      0.025980000000     0.526820000000     0.341680000000     0.0260348  
H296     H      0.052590000000     0.427200000000     0.128250000000     0.146649   
H297     H      0.864020000000     0.320010000000     0.983460000000     0.0195396  
H298     H      0.658940000000     0.063520000000     0.930870000000     0.0241511  
H299     H      0.819180000000     0.210530000000     0.957900000000     0.0380155  
H300     H      0.728430000000     0.203540000000     0.877850000000     0.0357381  
H301     H      0.719700000000     0.109690000000     0.922210000000     0.0565865  
H302     H      0.785760000000     0.255970000000     0.882800000000     0.0387129  
H303     H      0.676630000000     0.177850000000     0.910710000000     0.0701047  
H304     H      0.819980000000     0.264400000000     0.971650000000     0.051661   
H305     H      0.860870000000     0.286400000000     0.886400000000     0.0523329  
H306     H      0.762090000000     0.158190000000     0.952990000000     0.0354333  
H307     H      0.906250000000     0.342770000000     0.899230000000     0.031534   
H308     H      0.616090000000     0.155430000000     0.912860000000     0.144205   
H309     H      0.318690000000     0.897600000000     0.028790000000     0.0334068  
H310     H      0.115450000000     0.637270000000     0.977080000000     0.0166289  
H311     H      0.253540000000     0.757590000000     0.078120000000     0.037939   
H312     H      0.157670000000     0.747200000000     0.001680000000     0.0360578  
H313     H      0.158580000000     0.693420000000     0.987520000000     0.0570512  
H314     H      0.213860000000     0.800750000000     0.005240000000     0.0386065  
H315     H      0.121980000000     0.673040000000     0.073790000000     0.0705357  
H316     H      0.258210000000     0.850340000000     0.038390000000     0.0516483  
H317     H      0.301960000000     0.783200000000     0.039030000000     0.0508154  
H318     H      0.197050000000     0.704150000000     0.074800000000     0.0361312  
H319     H      0.361090000000     0.830160000000     0.028830000000     0.0177264  
H320     H      0.075800000000     0.621040000000     0.084860000000     0.145148   
H321     H      0.590860000000     0.412500000000     0.970760000000     0.0237128  
H322     H      0.900440000000     0.521800000000     0.054270000000     0.0239809  
H323     H      0.683290000000     0.430010000000     0.038410000000     0.0373212  
H324     H      0.805190000000     0.510770000000     0.002190000000     0.0373538  
H325     H      0.844030000000     0.524540000000     0.048610000000     0.0565858  
H326     H      0.750880000000     0.507790000000     0.975660000000     0.0371046  
H327     H      0.782950000000     0.417200000000     0.054030000000     0.0702812  
H328     H      0.646130000000     0.413130000000     0.993490000000     0.0518775  
H329     H      0.703730000000     0.520600000000     0.978340000000     0.0496338  
H330     H      0.738030000000     0.432600000000     0.064770000000     0.034708   
H331     H      0.649080000000     0.518810000000     0.954730000000     0.0196642  
H332     H      0.816160000000     0.390530000000     0.064320000000     0.142605   
H333     H      0.326400000000     0.460440000000     0.999630000000     0.0187326  
H334     H      0.125610000000     0.555340000000     0.910340000000     0.015821   
H335     H      0.277640000000     0.500000000000     0.927200000000     0.0395219  
H336     H      0.219650000000     0.555860000000     0.967630000000     0.0370555  
H337     H      0.188660000000     0.569370000000     0.922040000000     0.0554918  
H338     H      0.276080000000     0.558780000000     0.991510000000     0.0381354  
H339     H      0.159570000000     0.466520000000     0.918980000000     0.0700165  
H340     H      0.276260000000     0.470970000000     0.983500000000     0.0520335  
H341     H      0.350980000000     0.576800000000     0.977720000000     0.0524375  
H342     H      0.221950000000     0.497360000000     0.903200000000     0.0356488  
H343     H      0.401420000000     0.565260000000     0.994290000000     0.0263032  
H344     H      0.101090000000     0.431460000000     0.906430000000     0.147068   
H345     H      0.620510000000     0.637470000000     0.478250000000     0.0186383  
H346     H      0.818320000000     0.895750000000     0.534050000000     0.0291159  
H347     H      0.662760000000     0.747040000000     0.501910000000     0.0382033  
H348     H      0.747720000000     0.755930000000     0.587130000000     0.0356334  
H349     H      0.757350000000     0.848950000000     0.541000000000     0.0564682  
H350     H      0.691680000000     0.702870000000     0.580390000000     0.038256   
H351     H      0.802060000000     0.782040000000     0.556170000000     0.0712014  
H352     H      0.663820000000     0.693170000000     0.490500000000     0.0511015  
H353     H      0.617190000000     0.671920000000     0.573360000000     0.0516443  
H354     H      0.718520000000     0.800040000000     0.508650000000     0.0359281  
H355     H      0.572730000000     0.615580000000     0.560110000000     0.0250453  
H356     H      0.862990000000     0.805310000000     0.556230000000     0.145342   
H357     H      0.157190000000     0.061070000000     0.433800000000     0.0245037  
H358     H      0.363230000000     0.320800000000     0.484880000000     0.0196127  
H359     H      0.221880000000     0.200920000000     0.385830000000     0.0386063  
H360     H      0.320420000000     0.210770000000     0.459400000000     0.0363298  
H361     H      0.319870000000     0.264530000000     0.474790000000     0.058392   
H362     H      0.263950000000     0.157310000000     0.456590000000     0.0390856  
H363     H      0.353570000000     0.285010000000     0.387580000000     0.0705189  
H364     H      0.217320000000     0.107950000000     0.422680000000     0.0514454  
H365     H      0.176130000000     0.176000000000     0.427810000000     0.0536509  
H366     H      0.278630000000     0.254250000000     0.388340000000     0.0371772  
H367     H      0.117440000000     0.129420000000     0.439720000000     0.022468   
H368     H      0.399260000000     0.337010000000     0.375930000000     0.145022   
H369     H      0.526060000000     0.880670000000     0.424920000000     0.0237973  
H370     H      0.836230000000     0.953960000000     0.411150000000     0.0194147  
H371     H      0.637790000000     0.899530000000     0.456910000000     0.036306   
H372     H      0.734910000000     0.963020000000     0.387270000000     0.0352534  
H373     H      0.774020000000     0.939270000000     0.396970000000     0.0555774  
H374     H      0.673380000000     0.953720000000     0.373790000000     0.0379958  
H375     H      0.757440000000     0.952040000000     0.482820000000     0.0695499  
H376     H      0.581070000000     0.875340000000     0.426260000000     0.0514362  
H377     H      0.639240000000     0.977070000000     0.388920000000     0.0545731  
H378     H      0.698960000000     0.907200000000     0.469810000000     0.0343465  
H379     H      0.584100000000     0.981020000000     0.387240000000     0.0250157  
H380     H      0.805020000000     0.966300000000     0.515060000000     0.144063   
H381     H      0.394420000000     0.995640000000     0.580430000000     0.0243695  
H382     H      0.161330000000     0.023610000000     0.475740000000     0.024584   
H383     H      0.330660000000     0.063380000000     0.590440000000     0.0386504  
H384     H      0.271450000000     0.033440000000     0.492730000000     0.0347384  
H385     H      0.225800000000     0.045640000000     0.484530000000     0.0549956  
H386     H      0.334550000000     0.046470000000     0.502410000000     0.0370726  
H387     H      0.209950000000     0.011470000000     0.574800000000     0.0694059  
H388     H      0.346850000000     0.010300000000     0.582880000000     0.0548238  
H389     H      0.405330000000     0.098530000000     0.525860000000     0.0523384  
H390     H      0.268000000000     0.053280000000     0.580450000000     0.0345296  
H391     H      0.453850000000     0.084030000000     0.525260000000     0.0260473  
H392     H      0.152800000000     0.988040000000     0.588750000000     0.144438   
H393     H      0.019780000000     0.631070000000     0.412160000000     0.0289866  
H394     H      0.075020000000     0.897820000000     0.452100000000     0.0200398  
H395     H      0.067770000000     0.746360000000     0.422390000000     0.0394064  
H396     H      0.970300000000     0.759550000000     0.460020000000     0.0367792  
H397     H      0.079070000000     0.847700000000     0.446950000000     0.0572612  
H398     H      0.966480000000     0.705080000000     0.464850000000     0.0389822  
H399     H      0.964930000000     0.797010000000     0.420350000000     0.0724693  
H400     H      0.028940000000     0.687850000000     0.405250000000     0.0511621  
H401     H      0.998690000000     0.678290000000     0.492740000000     0.0403769  
H402     H      0.071150000000     0.801580000000     0.416780000000     0.0356543  
H403     H      0.989200000000     0.622070000000     0.498860000000     0.0311482  
H404     H      0.935880000000     0.827230000000     0.416570000000     0.146451   
H405     H      0.898010000000     0.057620000000     0.523190000000     0.0296717  
H406     H      0.944210000000     0.326180000000     0.544780000000     0.0236817  
H407     H      0.997840000000     0.197520000000     0.504140000000     0.0370616  
H408     H      0.900010000000     0.210640000000     0.541100000000     0.0356362  
H409     H      0.935560000000     0.270020000000     0.554050000000     0.0557     
H410     H      0.899000000000     0.156440000000     0.550040000000     0.0377733  
H411     H      0.967700000000     0.275500000000     0.468430000000     0.0693283  
H412     H      0.891530000000     0.107390000000     0.525230000000     0.0523601  
H413     H      0.007850000000     0.164360000000     0.543570000000     0.0599517  
H414     H      0.999800000000     0.251000000000     0.496660000000     0.0346812  
H415     H      0.013330000000     0.115510000000     0.539750000000     0.031154   
H416     H      0.984600000000     0.323280000000     0.441270000000     0.143884   
H417     H      0.903180000000     0.963010000000     0.609520000000     0.0281988  
H418     H      0.949430000000     0.011590000000     0.851570000000     0.0209087  
H419     H      0.889810000000     0.919580000000     0.708240000000     0.0386576  
H420     H      0.985050000000     0.009500000000     0.766040000000     0.0338708  
H421     H      0.943750000000     0.011740000000     0.799810000000     0.0557614  
H422     H      0.990620000000     0.012550000000     0.714120000000     0.0362366  
H423     H      0.919700000000     0.909400000000     0.806740000000     0.0704603  
H424     H      0.892170000000     0.959090000000     0.660530000000     0.0533132  
H425     H      0.001500000000     0.975920000000     0.683540000000     0.0594753  
H426     H      0.884140000000     0.916450000000     0.760640000000     0.0361929  
H427     H      0.011690000000     0.979350000000     0.633030000000     0.0288373  
H428     H      0.916360000000     0.884460000000     0.851820000000     0.145619   
H429     H      0.967790000000     0.980510000000     0.344210000000     0.0271671  
H430     H      0.029490000000     0.948180000000     0.128240000000     0.0238588  
H431     H      0.019340000000     0.030360000000     0.258990000000     0.0402544  
H432     H      0.074260000000     0.969280000000     0.222750000000     0.0357539  
H433     H      0.034350000000     0.949460000000     0.179830000000     0.05826    
H434     H      0.066040000000     0.964420000000     0.274560000000     0.0397426  
H435     H      0.069770000000     0.054600000000     0.169960000000     0.0718246  
H436     H      0.980000000000     0.986870000000     0.293840000000     0.0410252  
H437     H      0.085650000000     0.995060000000     0.318610000000     0.0514345  
H438     H      0.026240000000     0.034210000000     0.207300000000     0.0382927  
H439     H      0.072470000000     0.988140000000     0.369240000000     0.0277575  
H440     H      0.075150000000     0.078490000000     0.124560000000     0.147987   
H441     H      0.813360000000     0.883110000000     0.986490000000     0.0270969  
H442     H      0.644520000000     0.595880000000     0.037790000000     0.0174539  
H443     H      0.704690000000     0.775440000000     0.969390000000     0.0390267  
H444     H      0.733370000000     0.704050000000     0.044360000000     0.0337527  
H445     H      0.693740000000     0.651370000000     0.031420000000     0.0544271  
H446     H      0.782850000000     0.755130000000     0.022950000000     0.038346   
H447     H      0.618630000000     0.689810000000     0.028670000000     0.0696384  
H448     H      0.758180000000     0.831060000000     0.996840000000     0.0534617  
H449     H      0.805360000000     0.777580000000     0.965370000000     0.0519198  
H450     H      0.654790000000     0.723060000000     0.989240000000     0.0360679  
H451     H      0.860170000000     0.830470000000     0.954200000000     0.0262608  
H452     H      0.559720000000     0.651390000000     0.035020000000     0.142943   
H453     H      0.334420000000     0.360990000000     0.924310000000     0.0159291  
H454     H      0.175870000000     0.077590000000     0.992680000000     0.0201671  
H455     H      0.250730000000     0.250000000000     0.922140000000     0.0369595  
H456     H      0.285800000000     0.188850000000     0.003230000000     0.0352725  
H457     H      0.230590000000     0.128440000000     0.979430000000     0.0594939  
H458     H      0.333490000000     0.240210000000     0.979690000000     0.040162   
H459     H      0.186610000000     0.185960000000     0.007430000000     0.0719402  
H460     H      0.287560000000     0.304440000000     0.933300000000     0.0503714  
H461     H      0.368420000000     0.271840000000     0.938440000000     0.0523802  
H462     H      0.203520000000     0.200130000000     0.947010000000     0.0379517  
H463     H      0.415450000000     0.329910000000     0.930050000000     0.0260438  
H464     H      0.132420000000     0.156750000000     0.028350000000     0.143757   
H465     H      0.652530000000     0.988980000000     0.970280000000     0.0316972  
H466     H      0.947200000000     0.071230000000     0.041230000000     0.0182235  
H467     H      0.741130000000     0.967180000000     0.017540000000     0.0386467  
H468     H      0.834220000000     0.066320000000     0.067140000000     0.0352967  
H469     H      0.890050000000     0.073040000000     0.037740000000     0.0548394  
H470     H      0.772910000000     0.059770000000     0.054040000000     0.0376773  
H471     H      0.837280000000     0.974720000000     0.081590000000     0.0738773  
H472     H      0.714200000000     0.998520000000     0.982550000000     0.0521662  
H473     H      0.706190000000     0.016630000000     0.069230000000     0.0523559  
H474     H      0.801780000000     0.973500000000     0.030840000000     0.037227   
H475     H      0.644310000000     0.006550000000     0.056600000000     0.0275726  
H476     H      0.873820000000     0.952650000000     0.098460000000     0.147293   
H477     H      0.026450000000     0.874160000000     0.933110000000     0.029964   
H478     H      0.331070000000     0.935760000000     0.904260000000     0.0260104  
H479     H      0.132890000000     0.879750000000     0.953900000000     0.0382896  
H480     H      0.223980000000     0.932560000000     0.878630000000     0.0352573  
H481     H      0.267090000000     0.913900000000     0.891450000000     0.0563583  
H482     H      0.162110000000     0.923010000000     0.866730000000     0.0382581  
H483     H      0.251270000000     0.935380000000     0.974150000000     0.0695091  
H484     H      0.072260000000     0.857780000000     0.926910000000     0.0534031  
H485     H      0.137840000000     0.954920000000     0.883110000000     0.0534004  
H486     H      0.194260000000     0.887480000000     0.965380000000     0.0345464  
H487     H      0.092300000000     0.970070000000     0.890010000000     0.0245789  
H488     H      0.300260000000     0.956940000000     0.004810000000     0.142916   
H489     H      0.938880000000     0.596020000000     0.943790000000     0.0262839  
H490     H      0.911500000000     0.818850000000     0.973100000000     0.0214744  
H491     H      0.955260000000     0.674940000000     0.042040000000     0.0367061  
H492     H      0.909230000000     0.725020000000     0.959350000000     0.0341206  
H493     H      0.895510000000     0.761090000000     0.975500000000     0.0552168  
H494     H      0.901120000000     0.670000000000     0.956760000000     0.0366122  
H495     H      0.990890000000     0.781380000000     0.032250000000     0.0671834  
H496     H      0.930390000000     0.643080000000     0.948280000000     0.0508711  
H497     H      0.928070000000     0.620140000000     0.041250000000     0.0505705  
H498     H      0.957790000000     0.727250000000     0.046450000000     0.0329022  
H499     H      0.941410000000     0.576290000000     0.035960000000     0.0260413  
H500     H      0.023440000000     0.833130000000     0.046220000000     0.145287   
H501     H      0.017740000000     0.131520000000     0.929850000000     0.0204369  
H502     H      0.063380000000     0.378120000000     0.014310000000     0.0231828  
H503     H      0.079850000000     0.249180000000     0.928060000000     0.037273   
H504     H      0.039050000000     0.274220000000     0.013200000000     0.0363503  
H505     H      0.078020000000     0.334040000000     0.013660000000     0.0566843  
H506     H      0.037740000000     0.221120000000     0.013500000000     0.0388087  
H507     H      0.035610000000     0.320500000000     0.925350000000     0.0720492  
H508     H      0.031290000000     0.189410000000     0.926830000000     0.0520978  
H509     H      0.077570000000     0.196710000000     0.014630000000     0.0518589  
H510     H      0.081450000000     0.302990000000     0.927800000000     0.0344777  
H511     H      0.062600000000     0.139060000000     0.017460000000     0.0370227  
H512     H      0.016980000000     0.356090000000     0.904130000000     0.147832   
N1       N      0.524560000000     0.478710000000     0.852570000000    -0.216297   
N2       N      0.533350000000     0.487900000000     0.611070000000    -0.193405   
N3       N      0.450950000000     0.476480000000     0.348000000000    -0.21551    
N4       N      0.465120000000     0.487910000000     0.104540000000    -0.192885   
N5       N      0.438050000000     0.825920000000     0.496070000000    -0.216402   
N6       N      0.438670000000     0.583070000000     0.491650000000    -0.193152   
N7       N      0.533610000000     0.372660000000     0.470450000000    -0.216829   
N8       N      0.528520000000     0.126500000000     0.466450000000    -0.194012   
N9       N      0.543150000000     0.996790000000     0.608360000000    -0.215525   
N10      N      0.520500000000     0.986420000000     0.850610000000    -0.191451   
N11      N      0.435770000000     0.959820000000     0.350180000000    -0.214498   
N12      N      0.459580000000     0.977850000000     0.106730000000    -0.191763   
N13      N      0.522830000000     0.876860000000     0.937410000000    -0.217999   
N14      N      0.512510000000     0.625450000000     0.953340000000    -0.190089   
N15      N      0.462480000000     0.335050000000     0.001260000000    -0.215039   
N16      N      0.457060000000     0.084950000000     0.020440000000    -0.192066   
N17      N      0.876450000000     0.346240000000     0.430330000000    -0.217505   
N18      N      0.642450000000     0.094380000000     0.496750000000    -0.192535   
N19      N      0.329990000000     0.859400000000     0.463620000000    -0.21673    
N20      N      0.091170000000     0.608230000000     0.533780000000    -0.193804   
N21      N      0.858780000000     0.504670000000     0.501120000000    -0.219643   
N22      N      0.599670000000     0.499470000000     0.414350000000    -0.199521   
N23      N      0.112540000000     0.466540000000     0.465130000000    -0.218243   
N24      N      0.373870000000     0.472890000000     0.553200000000    -0.193917   
N25      N      0.950180000000     0.472320000000     0.848130000000    -0.216248   
N26      N      0.953400000000     0.481920000000     0.605140000000    -0.193055   
N27      N      0.033260000000     0.487140000000     0.111740000000    -0.214926   
N28      N      0.020850000000     0.478220000000     0.354340000000    -0.191977   
N29      N      0.632740000000     0.093840000000     0.927020000000    -0.215457   
N30      N      0.888160000000     0.335920000000     0.942040000000    -0.190799   
N31      N      0.093040000000     0.621460000000     0.019190000000    -0.215828   
N32      N      0.344270000000     0.867450000000     0.027490000000    -0.191036   
N33      N      0.874290000000     0.468510000000     0.054260000000    -0.218195   
N34      N      0.615580000000     0.465700000000     0.962170000000    -0.195849   
N35      N      0.105370000000     0.502560000000     0.910290000000    -0.219483   
N36      N      0.367660000000     0.512060000000     0.996440000000    -0.193607   
N37      N      0.845220000000     0.865980000000     0.539720000000    -0.214907   
N38      N      0.593470000000     0.622010000000     0.518390000000    -0.192258   
N39      N      0.384180000000     0.336590000000     0.442260000000    -0.215536   
N40      N      0.133070000000     0.091680000000     0.438390000000    -0.19201    
N41      N      0.833700000000     0.960970000000     0.455550000000    -0.214734   
N42      N      0.551730000000     0.931780000000     0.407410000000    -0.198622   
N43      N      0.147750000000     0.006220000000     0.520010000000    -0.215641   
N44      N      0.426480000000     0.038050000000     0.551630000000    -0.19372    
N45      N      0.017430000000     0.875300000000     0.441560000000    -0.216119   
N46      N      0.003370000000     0.621990000000     0.455880000000    -0.179076   
N47      N      0.962480000000     0.334380000000     0.501670000000    -0.213214   
N48      N      0.956270000000     0.083540000000     0.529710000000    -0.191325   
N49      N      0.939560000000     0.960850000000     0.860070000000    -0.214934   
N50      N      0.958270000000     0.971580000000     0.617300000000    -0.191816   
N51      N      0.045050000000     0.000220000000     0.118340000000    -0.21436    
N52      N      0.019320000000     0.984170000000     0.360680000000    -0.187012   
N53      N      0.602100000000     0.609600000000     0.033580000000    -0.217047   
N54      N      0.841410000000     0.860440000000     0.970720000000    -0.192511   
N55      N      0.148370000000     0.101920000000     0.006450000000    -0.217072   
N56      N      0.378630000000     0.349730000000     0.928400000000    -0.194447   
N57      N      0.924610000000     0.021310000000     0.061640000000    -0.223687   
N58      N      0.643580000000     0.996920000000     0.012490000000    -0.190967   
N59      N      0.329140000000     0.948020000000     0.946940000000    -0.214296   
N60      N      0.057290000000     0.923810000000     0.913400000000    -0.192643   
N61      N      0.959210000000     0.833410000000     0.002060000000    -0.219781   
N62      N      0.941710000000     0.583210000000     0.989530000000    -0.193455   
N63      N      0.040180000000     0.374910000000     0.970480000000    -0.215638   
N64      N      0.038360000000     0.130670000000     0.974040000000    -0.193117   
O1       O      0.110500000000     0.051140000000     0.989750000000    -0.383717   
O2       O      0.088650000000     0.071220000000     0.019940000000    -0.346389   
O3       O      0.959310000000     0.992490000000     0.898970000000    -0.376364   
O4       O      0.948230000000     0.938890000000     0.905720000000    -0.356856   
O5       O      0.012030000000     0.079940000000     0.954790000000    -0.375822   
O6       O      0.033540000000     0.084660000000     0.001800000000    -0.364662   
O7       O      0.060750000000     0.967510000000     0.933010000000    -0.383669   
O8       O      0.007410000000     0.918650000000     0.934330000000    -0.352913   
O9       O      0.104910000000     0.035840000000     0.933750000000    -0.331662   
O10      O      0.105920000000     0.981210000000     0.991510000000    -0.529972   
O11      O      0.017320000000     0.058240000000     0.902290000000    -0.517058   
O12      O      0.933130000000     0.032060000000     0.929910000000    -0.353006   
O13      O      0.038730000000     0.035770000000     0.972580000000    -0.497974   
O14      O      0.010230000000     0.986690000000     0.940140000000    -0.630021   
O15      O      0.985460000000     0.884410000000     0.020610000000    -0.368625   
O16      O      0.956250000000     0.877190000000     0.975990000000    -0.373019   
O17      O      0.946390000000     0.986810000000     0.053180000000    -0.339931   
O18      O      0.982400000000     0.040970000000     0.045780000000    -0.367161   
O19      O      0.879210000000     0.910960000000     0.987780000000    -0.38123    
O20      O      0.900980000000     0.890840000000     0.957490000000    -0.361609   
O21      O      0.025450000000     0.968110000000     0.079670000000    -0.368626   
O22      O      0.040360000000     0.022700000000     0.072080000000    -0.351657   
O23      O      0.967940000000     0.900500000000     0.072240000000    -0.524309   
O24      O      0.057250000000     0.932760000000     0.051370000000    -0.349566   
O25      O      0.874190000000     0.931000000000     0.037410000000    -0.334155   
O26      O      0.889630000000     0.989620000000     0.991550000000    -0.536911   
O27      O      0.950190000000     0.926100000000     0.005300000000    -0.633284   
O28      O      0.979240000000     0.975360000000     0.037400000000    -0.472695   
O29      O      0.020070000000     0.944740000000     0.986500000000    -0.496498   
O30      O      0.969120000000     0.017760000000     0.991070000000    -0.63021    
O31      O      0.049770000000     0.995130000000     0.019820000000    -0.637334   
O32      O      0.939640000000     0.966830000000     0.958080000000    -0.493415   
O33      O      0.982510000000     0.890240000000     0.463020000000    -0.36835    
O34      O      0.040200000000     0.929770000000     0.452450000000    -0.373763   
O35      O      0.888810000000     0.969290000000     0.442590000000    -0.375748   
O36      O      0.881120000000     0.970660000000     0.489650000000    -0.347831   
O37      O      0.981960000000     0.979580000000     0.395080000000    -0.385337   
O38      O      0.036980000000     0.982850000000     0.408990000000    -0.372525   
O39      O      0.899810000000     0.884000000000     0.519990000000    -0.359031   
O40      O      0.884760000000     0.922230000000     0.530680000000    -0.361954   
O41      O      0.908600000000     0.860320000000     0.472410000000    -0.319557   
O42      O      0.969990000000     0.874510000000     0.530450000000    -0.529996   
O43      O      0.907000000000     0.934260000000     0.405960000000    -0.523678   
O44      O      0.946660000000     0.021670000000     0.403940000000    -0.345036   
O45      O      0.978250000000     0.944290000000     0.451340000000    -0.497146   
O46      O      0.926350000000     0.941350000000     0.478680000000    -0.634979   
O47      O      0.995210000000     0.976070000000     0.582660000000    -0.38537    
O48      O      0.940420000000     0.973450000000     0.568970000000    -0.37002    
O49      O      0.079590000000     0.073740000000     0.459720000000    -0.380181   
O50      O      0.092950000000     0.035430000000     0.446410000000    -0.362587   
O51      O      0.992500000000     0.068820000000     0.510100000000    -0.386725   
O52      O      0.936520000000     0.028100000000     0.523730000000    -0.361133   
O53      O      0.091440000000     0.993010000000     0.534670000000    -0.351989   
O54      O      0.098580000000     0.991650000000     0.487390000000    -0.370911   
O55      O      0.069570000000     0.020460000000     0.574790000000    -0.520721   
O56      O      0.032100000000     0.934400000000     0.571610000000    -0.346843   
O57      O      0.068520000000     0.094460000000     0.510080000000    -0.335306   
O58      O      0.012840000000     0.084760000000     0.446800000000    -0.522945   
O59      O      0.000020000000     0.013140000000     0.526910000000    -0.628797   
O60      O      0.051860000000     0.015980000000     0.499300000000    -0.501149   
O61      O      0.965720000000     0.943310000000     0.532320000000    -0.500651   
O62      O      0.012390000000     0.014580000000     0.445740000000    -0.630939   
O63      O      0.019360000000     0.945380000000     0.504590000000    -0.630014   
O64      O      0.959340000000     0.012190000000     0.473320000000    -0.497624   
O65      O      0.035030000000     0.410740000000     0.997300000000    -0.377916   
O66      O      0.013200000000     0.405960000000     0.950520000000    -0.340752   
O67      O      0.896000000000     0.443010000000     0.029980000000    -0.368672   
O68      O      0.934920000000     0.494910000000     0.043990000000    -0.363645   
O69      O      0.903900000000     0.377470000000     0.971250000000    -0.38065    
O70      O      0.938100000000     0.388080000000     0.933010000000    -0.356729   
O71      O      0.031870000000     0.467490000000     0.068430000000    -0.359701   
O72      O      0.012860000000     0.505520000000     0.069350000000    -0.370246   
O73      O      0.005040000000     0.400400000000     0.052970000000    -0.326096   
O74      O      0.088300000000     0.468370000000     0.032270000000    -0.528618   
O75      O      0.902230000000     0.382380000000     0.033760000000    -0.525688   
O76      O      0.860420000000     0.410080000000     0.976650000000    -0.352417   
O77      O      0.973190000000     0.420760000000     0.988020000000    -0.504951   
O78      O      0.973090000000     0.455290000000     0.028480000000    -0.638896   
O79      O      0.078380000000     0.579730000000     0.990280000000    -0.386629   
O80      O      0.042430000000     0.569340000000     0.027170000000    -0.345393   
O81      O      0.952640000000     0.492850000000     0.891140000000    -0.378433   
O82      O      0.968490000000     0.452560000000     0.890750000000    -0.354794   
O83      O      0.947430000000     0.548420000000     0.962050000000    -0.374012   
O84      O      0.965560000000     0.550140000000     0.009870000000    -0.368661   
O85      O      0.061710000000     0.517180000000     0.916130000000    -0.361159   
O86      O      0.044550000000     0.463830000000     0.914440000000    -0.333772   
O87      O      0.097120000000     0.582700000000     0.937360000000    -0.521155   
O88      O      0.117430000000     0.532370000000     0.979240000000    -0.367233   
O89      O      0.974770000000     0.557540000000     0.907040000000    -0.344127   
O90      O      0.892830000000     0.488120000000     0.928290000000    -0.529943   
O91      O      0.008550000000     0.537160000000     0.971940000000    -0.627879   
O92      O      0.008050000000     0.502490000000     0.931880000000    -0.473019   
O93      O      0.043490000000     0.508390000000     0.012590000000    -0.496859   
O94      O      0.937730000000     0.449680000000     0.947520000000    -0.633098   
O95      O      0.042020000000     0.473190000000     0.972040000000    -0.626081   
O96      O      0.939790000000     0.484480000000     0.987990000000    -0.493557   
O97      O      0.962340000000     0.379440000000     0.518320000000    -0.372152   
O98      O      0.979990000000     0.383560000000     0.473120000000    -0.341363   
O99      O      0.879950000000     0.473770000000     0.484340000000    -0.367213   
O100     O      0.919840000000     0.520170000000     0.506840000000    -0.370342   
O101     O      0.889950000000     0.396880000000     0.443470000000    -0.36829    
O102     O      0.936060000000     0.388740000000     0.432870000000    -0.360868   
O103     O      0.959720000000     0.455480000000     0.569730000000    -0.380501   
O104     O      0.965580000000     0.507230000000     0.558950000000    -0.374947   
O105     O      0.913160000000     0.389270000000     0.550120000000    -0.339037   
O106     O      0.007830000000     0.424290000000     0.565960000000    -0.52526    
O107     O      0.848620000000     0.410130000000     0.473050000000    -0.508294   
O108     O      0.885780000000     0.464840000000     0.416240000000    -0.356553   
O109     O      0.942320000000     0.421370000000     0.481170000000    -0.498579   
O110     O      0.935410000000     0.461630000000     0.510050000000    -0.631735   
O111     O      0.078480000000     0.557670000000     0.521350000000    -0.383437   
O112     O      0.031800000000     0.567470000000     0.526980000000    -0.364068   
O113     O      0.012520000000     0.503390000000     0.389710000000    -0.373048   
O114     O      0.005400000000     0.451110000000     0.399710000000    -0.368437   
O115     O      0.003180000000     0.577120000000     0.438890000000    -0.360086   
O116     O      0.987500000000     0.573590000000     0.484790000000    -0.36148    
O117     O      0.079350000000     0.494140000000     0.456640000000    -0.35778    
O118     O      0.049980000000     0.439520000000     0.454200000000    -0.340236   
O119     O      0.122460000000     0.546140000000     0.495290000000    -0.519519   
O120     O      0.083390000000     0.482240000000     0.534820000000    -0.363587   
O121     O      0.053690000000     0.569590000000     0.408080000000    -0.333015   
O122     O      0.959040000000     0.530060000000     0.391750000000    -0.525614   
O123     O      0.026530000000     0.536720000000     0.477030000000    -0.6292     
O124     O      0.032600000000     0.495930000000     0.448670000000    -0.463701   
O125     O      0.010460000000     0.491490000000     0.527990000000    -0.492314   
O126     O      0.957590000000     0.465810000000     0.430400000000    -0.629347   
O127     O      0.017380000000     0.449130000000     0.498640000000    -0.623802   
O128     O      0.950910000000     0.508400000000     0.460070000000    -0.494952   
O129     O      0.385710000000     0.960540000000     0.933550000000    -0.374393   
O130     O      0.379260000000     0.967670000000     0.979330000000    -0.347649   
O131     O      0.487700000000     0.891200000000     0.959220000000    -0.387314   
O132     O      0.542170000000     0.932260000000     0.943230000000    -0.351055   
O133     O      0.398980000000     0.885660000000     0.008060000000    -0.380454   
O134     O      0.384410000000     0.923790000000     0.019930000000    -0.356081   
O135     O      0.482990000000     0.981610000000     0.884960000000    -0.37594    
O136     O      0.538410000000     0.985820000000     0.898980000000    -0.368089   
O137     O      0.409370000000     0.938420000000     0.891240000000    -0.335387   
O138     O      0.444550000000     0.022910000000     0.896730000000    -0.531187   
O139     O      0.412150000000     0.864350000000     0.959750000000    -0.521501   
O140     O      0.467210000000     0.876040000000     0.023420000000    -0.354868   
O141     O      0.426830000000     0.943010000000     0.968600000000    -0.497558   
O142     O      0.478740000000     0.945790000000     0.941310000000    -0.632459   
O143     O      0.578090000000     0.075810000000     0.946870000000    -0.36309    
O144     O      0.593430000000     0.037620000000     0.936710000000    -0.367029   
O145     O      0.496890000000     0.982910000000     0.072150000000    -0.378559   
O146     O      0.440560000000     0.976760000000     0.058460000000    -0.370025   
O147     O      0.589790000000     0.991330000000     0.025570000000    -0.372875   
O148     O      0.596610000000     0.988000000000     0.978620000000    -0.362661   
O149     O      0.493380000000     0.069760000000     0.001430000000    -0.374133   
O150     O      0.436310000000     0.029680000000     0.013090000000    -0.366553   
O151     O      0.567850000000     0.098770000000     0.994500000000    -0.516236   
O152     O      0.507820000000     0.084700000000     0.934890000000    -0.353038   
O153     O      0.572390000000     0.027640000000     0.061370000000    -0.340651   
O154     O      0.530960000000     0.939880000000     0.064270000000    -0.528563   
O155     O      0.552000000000     0.018950000000     0.988690000000    -0.636981   
O156     O      0.499480000000     0.015880000000     0.015680000000    -0.497027   
O157     O      0.512310000000     0.015820000000     0.934820000000    -0.498817   
O158     O      0.466180000000     0.945680000000     0.022290000000    -0.630528   
O159     O      0.458420000000     0.013450000000     0.962280000000    -0.630044   
O160     O      0.519720000000     0.948260000000     0.994930000000    -0.491846   
O161     O      0.501420000000     0.075600000000     0.447520000000    -0.379719   
O162     O      0.528410000000     0.081500000000     0.492940000000    -0.368777   
O163     O      0.371390000000     0.908610000000     0.481610000000    -0.364959   
O164     O      0.389070000000     0.888280000000     0.448510000000    -0.367239   
O165     O      0.425260000000     0.991940000000     0.538930000000    -0.383833   
O166     O      0.476350000000     0.041620000000     0.532030000000    -0.355981   
O167     O      0.455270000000     0.990520000000     0.389640000000    -0.372212   
O168     O      0.439250000000     0.935640000000     0.396200000000    -0.350526   
O169     O      0.424810000000     0.026970000000     0.420230000000    -0.355643   
O170     O      0.511560000000     0.056980000000     0.395380000000    -0.520017   
O171     O      0.378640000000     0.981480000000     0.479140000000    -0.52861    
O172     O      0.375680000000     0.925940000000     0.535620000000    -0.320836   
O173     O      0.463160000000     0.014760000000     0.482840000000    -0.500138   
O174     O      0.431070000000     0.964000000000     0.449830000000    -0.631217   
O175     O      0.531860000000     0.968000000000     0.414890000000    -0.354649   
O176     O      0.494260000000     0.914170000000     0.422860000000    -0.360109   
O177     O      0.522960000000     0.965220000000     0.569350000000    -0.384225   
O178     O      0.534970000000     0.019120000000     0.562760000000    -0.358867   
O179     O      0.465830000000     0.877620000000     0.513860000000    -0.351694   
O180     O      0.443310000000     0.871890000000     0.467240000000    -0.369776   
O181     O      0.602510000000     0.044440000000     0.479390000000    -0.382131   
O182     O      0.582960000000     0.065840000000     0.510340000000    -0.363735   
O183     O      0.589440000000     0.965250000000     0.475690000000    -0.533201   
O184     O      0.604580000000     0.024060000000     0.428810000000    -0.338968   
O185     O      0.546840000000     0.923990000000     0.536270000000    -0.351781   
O186     O      0.465150000000     0.900000000000     0.566870000000    -0.516175   
O187     O      0.509800000000     0.938690000000     0.476940000000    -0.625899   
O188     O      0.542000000000     0.990130000000     0.509690000000    -0.502251   
O189     O      0.500280000000     0.981540000000     0.431060000000    -0.466376   
O190     O      0.472650000000     0.972230000000     0.529050000000    -0.638202   
O191     O      0.531940000000     0.031190000000     0.462920000000    -0.630991   
O192     O      0.441670000000     0.922850000000     0.496610000000    -0.497947   
O193     O      0.466150000000     0.381910000000     0.017670000000    -0.354398   
O194     O      0.481500000000     0.383870000000     0.972080000000    -0.365801   
O195     O      0.387210000000     0.477910000000     0.984380000000    -0.383743   
O196     O      0.428530000000     0.526200000000     0.003680000000    -0.36459    
O197     O      0.394140000000     0.400660000000     0.941950000000    -0.38516    
O198     O      0.438960000000     0.390460000000     0.931680000000    -0.365265   
O199     O      0.469440000000     0.460670000000     0.068870000000    -0.379417   
O200     O      0.474150000000     0.511950000000     0.057750000000    -0.374135   
O201     O      0.420490000000     0.394280000000     0.050980000000    -0.33227    
O202     O      0.515250000000     0.427400000000     0.064120000000    -0.527435   
O203     O      0.355720000000     0.413290000000     0.975950000000    -0.516598   
O204     O      0.390010000000     0.468070000000     0.917310000000    -0.356581   
O205     O      0.447580000000     0.423890000000     0.980770000000    -0.499772   
O206     O      0.442770000000     0.465740000000     0.009690000000    -0.632615   
O207     O      0.585960000000     0.559470000000     0.017520000000    -0.389407   
O208     O      0.541260000000     0.570400000000     0.026290000000    -0.347714   
O209     O      0.516820000000     0.503920000000     0.888430000000    -0.360218   
O210     O      0.508550000000     0.451410000000     0.898030000000    -0.377362   
O211     O      0.509900000000     0.579450000000     0.936530000000    -0.371456   
O212     O      0.497340000000     0.577790000000     0.983050000000    -0.359275   
O213     O      0.583220000000     0.493930000000     0.953180000000    -0.355448   
O214     O      0.553100000000     0.439040000000     0.952180000000    -0.367527   
O215     O      0.628700000000     0.546670000000     0.991020000000    -0.519259   
O216     O      0.590070000000     0.483790000000     0.031520000000    -0.364772   
O217     O      0.558550000000     0.570570000000     0.905300000000    -0.326891   
O218     O      0.463650000000     0.531170000000     0.890460000000    -0.525441   
O219     O      0.533390000000     0.539000000000     0.974810000000    -0.634795   
O220     O      0.537240000000     0.496710000000     0.946200000000    -0.468849   
O221     O      0.518080000000     0.494680000000     0.025860000000    -0.499128   
O222     O      0.462160000000     0.467610000000     0.929580000000    -0.629647   
O223     O      0.522700000000     0.450670000000     0.996770000000    -0.627918   
O224     O      0.457590000000     0.511450000000     0.959250000000    -0.495585   
O225     O      0.530750000000     0.409920000000     0.497030000000    -0.356402   
O226     O      0.508440000000     0.405110000000     0.450350000000    -0.369301   
O227     O      0.394770000000     0.445670000000     0.530340000000    -0.383644   
O228     O      0.434490000000     0.497870000000     0.543480000000    -0.362538   
O229     O      0.400210000000     0.378360000000     0.471550000000    -0.37842    
O230     O      0.434030000000     0.388790000000     0.433200000000    -0.35234    
O231     O      0.530920000000     0.468040000000     0.567930000000    -0.38203    
O232     O      0.512780000000     0.506780000000     0.569210000000    -0.378652   
O233     O      0.505180000000     0.401890000000     0.553160000000    -0.328841   
O234     O      0.586930000000     0.469500000000     0.529760000000    -0.522711   
O235     O      0.404070000000     0.384610000000     0.535910000000    -0.533197   
O236     O      0.357060000000     0.408860000000     0.480600000000    -0.339566   
O237     O      0.470610000000     0.421320000000     0.488150000000    -0.50089    
O238     O      0.471900000000     0.456510000000     0.528780000000    -0.634682   
O239     O      0.577270000000     0.580530000000     0.488850000000    -0.386915   
O240     O      0.542710000000     0.570390000000     0.526740000000    -0.366318   
O241     O      0.451350000000     0.495360000000     0.391520000000    -0.357358   
O242     O      0.465180000000     0.453870000000     0.390790000000    -0.372196   
O243     O      0.442940000000     0.547540000000     0.463890000000    -0.373487   
O244     O      0.466290000000     0.552500000000     0.510420000000    -0.37005    
O245     O      0.555930000000     0.515130000000     0.415180000000    -0.358387   
O246     O      0.538570000000     0.462160000000     0.412200000000    -0.360035   
O247     O      0.596070000000     0.581850000000     0.435490000000    -0.524359   
O248     O      0.614470000000     0.531250000000     0.478990000000    -0.36233    
O249     O      0.471870000000     0.559360000000     0.409110000000    -0.327205   
O250     O      0.390280000000     0.488360000000     0.428130000000    -0.532101   
O251     O      0.506980000000     0.538120000000     0.471740000000    -0.630918   
O252     O      0.504850000000     0.502760000000     0.431890000000    -0.47462    
O253     O      0.542270000000     0.509160000000     0.511850000000    -0.496047   
O254     O      0.434560000000     0.450340000000     0.448250000000    -0.63377    
O255     O      0.539210000000     0.473250000000     0.471180000000    -0.625863   
O256     O      0.438410000000     0.485570000000     0.488860000000    -0.498283   
O257     O      0.531330000000     0.533890000000     0.840930000000    -0.291051   
O258     O      0.438730000000     0.522510000000     0.345810000000    -0.288803   
O259     O      0.451850000000     0.827370000000     0.547510000000    -0.292912   
O260     O      0.569270000000     0.384080000000     0.515700000000    -0.293868   
O261     O      0.560750000000     0.055150000000     0.604140000000    -0.289728   
O262     O      0.419260000000     0.901770000000     0.353370000000    -0.288179   
O263     O      0.587870000000     0.909200000000     0.942980000000    -0.290413   
O264     O      0.449460000000     0.330550000000     0.051070000000    -0.291458   
O265     O      0.828440000000     0.360170000000     0.418630000000    -0.304322   
O266     O      0.305610000000     0.888650000000     0.484910000000    -0.293156   
O267     O      0.818080000000     0.445850000000     0.507520000000    -0.301477   
O268     O      0.083050000000     0.406720000000     0.471400000000    -0.285203   
O269     O      0.951140000000     0.420750000000     0.847280000000    -0.287672   
O270     O      0.046350000000     0.441600000000     0.113800000000    -0.28965    
O271     O      0.607980000000     0.131390000000     0.918070000000    -0.297266   
O272     O      0.071440000000     0.609630000000     0.067010000000    -0.289295   
O273     O      0.841580000000     0.408960000000     0.062380000000    -0.300792   
O274     O      0.089390000000     0.445750000000     0.905250000000    -0.279536   
O275     O      0.870840000000     0.829260000000     0.550730000000    -0.296049   
O276     O      0.404160000000     0.348440000000     0.393850000000    -0.291332   
O277     O      0.824590000000     0.968230000000     0.503610000000    -0.288596   
O278     O      0.138490000000     0.987800000000     0.570310000000    -0.293706   
O279     O      0.954840000000     0.848770000000     0.423820000000    -0.293247   
O280     O      0.981650000000     0.337390000000     0.454010000000    -0.28446    
O281     O      0.923450000000     0.902840000000     0.864310000000    -0.289143   
O282     O      0.066780000000     0.059420000000     0.112590000000    -0.285209   
O283     O      0.559760000000     0.629890000000     0.035130000000    -0.289282   
O284     O      0.124870000000     0.133300000000     0.025200000000    -0.286291   
O285     O      0.897520000000     0.968920000000     0.090150000000    -0.294994   
O286     O      0.320210000000     0.959600000000     0.993400000000    -0.288586   
O287     O      0.011280000000     0.844950000000     0.034800000000    -0.290477   
O288     O      0.019160000000     0.369250000000     0.920230000000    -0.276517   
Zr1      Zr     0.063280000000     0.999800000000     0.970950000000     1.39191    
Zr2      Zr     0.984600000000     0.021830000000     0.942910000000     1.36397    
Zr3      Zr     0.004670000000     0.940220000000     0.034760000000     1.39894    
Zr4      Zr     0.925890000000     0.962550000000     0.006930000000     1.36598    
Zr5      Zr     0.023730000000     0.030570000000     0.021370000000     1.39375    
Zr6      Zr     0.965920000000     0.931500000000     0.956500000000     1.36635    
Zr7      Zr     0.956180000000     0.909720000000     0.494570000000     1.38505    
Zr8      Zr     0.949550000000     0.977220000000     0.436360000000     1.37962    
Zr9      Zr     0.028800000000     0.980110000000     0.541590000000     1.39104    
Zr10     Zr     0.022380000000     0.047920000000     0.483800000000     1.39475    
Zr11     Zr     0.041420000000     0.981580000000     0.461520000000     1.37582    
Zr12     Zr     0.936580000000     0.976240000000     0.516250000000     1.36709    
Zr13     Zr     0.024640000000     0.450390000000     0.019630000000     1.39415    
Zr14     Zr     0.922700000000     0.427160000000     0.995800000000     1.39221    
Zr15     Zr     0.059290000000     0.530650000000     0.964340000000     1.36959    
Zr16     Zr     0.956880000000     0.507760000000     0.940420000000     1.37654    
Zr17     Zr     0.989440000000     0.444200000000     0.939910000000     1.37457    
Zr18     Zr     0.991300000000     0.513330000000     0.019990000000     1.36183    
Zr19     Zr     0.968560000000     0.433230000000     0.528490000000     1.37166    
Zr20     Zr     0.910560000000     0.450330000000     0.462010000000     1.39107    
Zr21     Zr     0.057980000000     0.507410000000     0.496710000000     1.36534    
Zr22     Zr     0.999430000000     0.524040000000     0.429900000000     1.36367    
Zr23     Zr     0.990640000000     0.437320000000     0.450400000000     1.36217    
Zr24     Zr     0.977800000000     0.520120000000     0.507790000000     1.36243    
Zr25     Zr     0.449450000000     0.978150000000     0.925910000000     1.37958    
Zr26     Zr     0.456840000000     0.911740000000     0.984860000000     1.38673    
Zr27     Zr     0.521520000000     0.049830000000     0.972140000000     1.38667    
Zr28     Zr     0.528970000000     0.983690000000     0.031330000000     1.38416    
Zr29     Zr     0.436350000000     0.977910000000     0.005730000000     1.36915    
Zr30     Zr     0.541950000000     0.983590000000     0.951610000000     1.37309    
Zr31     Zr     0.477160000000     0.018370000000     0.434380000000     1.37963    
Zr32     Zr     0.419230000000     0.960290000000     0.499100000000     1.39359    
Zr33     Zr     0.554120000000     0.993320000000     0.460590000000     1.36414    
Zr34     Zr     0.496270000000     0.935850000000     0.525440000000     1.38472    
Zr35     Zr     0.517610000000     0.026800000000     0.511970000000     1.37571    
Zr36     Zr     0.454730000000     0.926730000000     0.447330000000     1.37574    
Zr37     Zr     0.475300000000     0.436680000000     0.027560000000     1.38722    
Zr38     Zr     0.416520000000     0.453510000000     0.962090000000     1.38789    
Zr39     Zr     0.564150000000     0.508760000000     0.993660000000     1.36748    
Zr40     Zr     0.504780000000     0.525680000000     0.928210000000     1.39034    
Zr41     Zr     0.494490000000     0.438220000000     0.948970000000     1.36913    
Zr42     Zr     0.485930000000     0.524110000000     0.006480000000     1.37206    
Zr43     Zr     0.522820000000     0.451070000000     0.519060000000     1.3908     
Zr44     Zr     0.420690000000     0.428090000000     0.496840000000     1.38776    
Zr45     Zr     0.557190000000     0.530930000000     0.463380000000     1.36589    
Zr46     Zr     0.454260000000     0.508590000000     0.441140000000     1.38241    
Zr47     Zr     0.485730000000     0.444350000000     0.439790000000     1.38227    
Zr48     Zr     0.490750000000     0.514710000000     0.520020000000     1.37138    


