data_structure

_audit_creation_method RASPA-1.0
_audit_creation_date 2023-6-4
_audit_author_name 'Poobodin Mano'

_cell_length_a    29.8217
_cell_length_b    29.9566
_cell_length_c    30.4227
_cell_angle_alpha 82.7507
_cell_angle_beta  96.3297
_cell_angle_gamma 119.441
_cell_volume      23442.8

_symmetry_cell_setting          triclinic
_symmetry_space_group_name_Hall 'P 1'
_symmetry_space_group_name_H-M  'P 1'
_symmetry_Int_Tables_number     1

_symmetry_equiv_pos_as_xyz 'x,y,z'

loop_
_atom_site_label
_atom_site_type_symbol
_atom_site_fract_x
_atom_site_fract_y
_atom_site_fract_z
_atom_site_charge
C1       C      0.174210000000     0.186240000000     0.029080000000     0.405678   
C2       C      0.008080000000     0.924520000000     0.909590000000     0.405521   
C3       C      0.050420000000     0.169670000000     0.939590000000     0.404902   
C4       C      0.126120000000     0.934160000000     0.026600000000     0.40726    
C5       C      0.012200000000     0.873430000000     0.127620000000     0.408931   
C6       C      0.929270000000     0.106150000000     0.036180000000     0.40554    
C7       C      0.876640000000     0.854960000000     0.019330000000     0.403377   
C8       C      0.061990000000     0.117810000000     0.157180000000     0.407506   
C9       C      0.054610000000     0.928520000000     0.446490000000     0.399741   
C10      C      0.847180000000     0.015890000000     0.515470000000     0.40396    
C11      C      0.042630000000     0.082180000000     0.375400000000     0.39826    
C12      C      0.873780000000     0.886090000000     0.596890000000     0.405512   
C13      C      0.991670000000     0.992390000000     0.685910000000     0.412668   
C14      C      0.167690000000     0.177720000000     0.467670000000     0.402488   
C15      C      0.980070000000     0.139430000000     0.606960000000     0.40922    
C16      C      0.185320000000     0.047460000000     0.548280000000     0.406723   
C17      C      0.036590000000     0.369430000000     0.016020000000     0.400786   
C18      C      0.917080000000     0.536070000000     0.114720000000     0.408846   
C19      C      0.913680000000     0.403220000000     0.941190000000     0.407487   
C20      C      0.044070000000     0.501760000000     0.193340000000     0.403651   
C21      C      0.170640000000     0.645410000000     0.132270000000     0.409005   
C22      C      0.044880000000     0.561220000000     0.875260000000     0.405515   
C23      C      0.042320000000     0.685430000000     0.051040000000     0.409409   
C24      C      0.166080000000     0.512980000000     0.958980000000     0.401047   
C25      C      0.005020000000     0.391930000000     0.622260000000     0.402751   
C26      C      0.870960000000     0.570480000000     0.526510000000     0.404264   
C27      C      0.928560000000     0.379780000000     0.489060000000     0.407246   
C28      C      0.963910000000     0.589620000000     0.665090000000     0.405722   
C29      C      0.117100000000     0.718420000000     0.589620000000     0.402932   
C30      C      0.075200000000     0.502610000000     0.420090000000     0.400204   
C31      C      0.015760000000     0.692640000000     0.460200000000     0.40191    
C32      C      0.170170000000     0.523650000000     0.562270000000     0.40429    
C33      C      0.381410000000     0.017520000000     0.994960000000     0.408238   
C34      C      0.577840000000     0.901850000000     0.968390000000     0.407448   
C35      C      0.382080000000     0.884120000000     0.086830000000     0.403841   
C36      C      0.588240000000     0.054380000000     0.881230000000     0.406836   
C37      C      0.700750000000     0.154110000000     0.976000000000     0.405842   
C38      C      0.495660000000     0.980910000000     0.183900000000     0.403767   
C39      C      0.699930000000     0.012510000000     0.071480000000     0.406559   
C40      C      0.508950000000     0.134340000000     0.101260000000     0.40701    
C41      C      0.531980000000     0.200300000000     0.447940000000     0.403324   
C42      C      0.366080000000     0.885170000000     0.544040000000     0.405494   
C43      C      0.442400000000     0.143780000000     0.550360000000     0.408995   
C44      C      0.452160000000     0.950800000000     0.397530000000     0.409971   
C45      C      0.596480000000     0.957970000000     0.469210000000     0.40565    
C46      C      0.583170000000     0.139090000000     0.657270000000     0.405877   
C47      C      0.514430000000     0.893340000000     0.604020000000     0.401619   
C48      C      0.678460000000     0.207660000000     0.516450000000     0.403486   
C49      C      0.533050000000     0.375290000000     0.131430000000     0.403241   
C50      C      0.406890000000     0.564590000000     0.024130000000     0.404306   
C51      C      0.425550000000     0.345180000000     0.001360000000     0.406103   
C52      C      0.516740000000     0.593980000000     0.154680000000     0.405916   
C53      C      0.657110000000     0.690450000000     0.074450000000     0.405372   
C54      C      0.559210000000     0.440240000000     0.914810000000     0.401096   
C55      C      0.545160000000     0.658900000000     0.937640000000     0.408036   
C56      C      0.673260000000     0.469760000000     0.056530000000     0.40342    
C57      C      0.495030000000     0.366690000000     0.496600000000     0.403574   
C58      C      0.416590000000     0.555500000000     0.620100000000     0.405477   
C59      C      0.388100000000     0.424480000000     0.438620000000     0.406819   
C60      C      0.539430000000     0.482500000000     0.693070000000     0.407088   
C61      C      0.666510000000     0.635890000000     0.635670000000     0.406008   
C62      C      0.537230000000     0.585240000000     0.380920000000     0.404093   
C63      C      0.546670000000     0.688750000000     0.576760000000     0.403039   
C64      C      0.641100000000     0.511880000000     0.449930000000     0.400459   
C65      C      0.554710000000     0.426810000000     0.753270000000     0.0167871  
C66      C      0.577200000000     0.429310000000     0.801560000000    -0.109124   
C67      C      0.539300000000     0.423420000000     0.834950000000     0.0183609  
C68      C      0.545400000000     0.570330000000     0.304740000000     0.0161953  
C69      C      0.553680000000     0.597620000000     0.257580000000    -0.108666   
C70      C      0.503640000000     0.593700000000     0.234190000000     0.0225943  
C71      C      0.549250000000     0.772830000000     0.556570000000     0.0165364  
C72      C      0.555590000000     0.818880000000     0.579240000000    -0.107915   
C73      C      0.506880000000     0.807070000000     0.601940000000     0.020257   
C74      C      0.560730000000     0.293870000000     0.444700000000     0.0174497  
C75      C      0.538040000000     0.328430000000     0.423870000000    -0.104232   
C76      C      0.483540000000     0.309860000000     0.438600000000     0.021605   
C77      C      0.571070000000     0.079570000000     0.803460000000     0.0196004  
C78      C      0.602880000000     0.115760000000     0.764900000000    -0.112936   
C79      C      0.571080000000     0.137550000000     0.736390000000     0.0237262  
C80      C      0.435450000000     0.951240000000     0.316740000000     0.0203335  
C81      C      0.411840000000     0.913720000000     0.280410000000    -0.111143   
C82      C      0.423900000000     0.942430000000     0.234120000000     0.0171927  
C83      C      0.546610000000     0.815440000000     0.945000000000     0.017433   
C84      C      0.567410000000     0.782590000000     0.929880000000    -0.109671   
C85      C      0.522660000000     0.729110000000     0.921270000000     0.0199875  
C86      C      0.557170000000     0.306100000000     0.148080000000     0.0193234  
C87      C      0.514860000000     0.251480000000     0.139570000000    -0.109903   
C88      C      0.538610000000     0.220040000000     0.126700000000     0.0172792  
C89      C      0.756290000000     0.265630000000     0.474560000000     0.0151252  
C90      C      0.811900000000     0.290370000000     0.494030000000    -0.107044   
C91      C      0.849510000000     0.308380000000     0.456860000000     0.021774   
C92      C      0.291250000000     0.829360000000     0.590430000000     0.0150782  
C93      C      0.234340000000     0.805920000000     0.573810000000    -0.107128   
C94      C      0.199890000000     0.793020000000     0.612860000000     0.0192188  
C95      C      0.713070000000     0.493010000000     0.447760000000     0.0209811  
C96      C      0.761060000000     0.542740000000     0.462400000000    -0.102781   
C97      C      0.776540000000     0.536820000000     0.511830000000     0.0199591  
C98      C      0.263870000000     0.558920000000     0.579930000000     0.0174304  
C99      C      0.299500000000     0.539430000000     0.604880000000    -0.110985   
C100     C      0.352260000000     0.585660000000     0.616090000000     0.0226226  
C101     C      0.989530000000     0.627750000000     0.735600000000     0.0150203  
C102     C      0.999650000000     0.587510000000     0.764940000000    -0.105947   
C103     C      0.038790000000     0.609920000000     0.803890000000     0.0133971  
C104     C      0.084660000000     0.501410000000     0.338990000000     0.0167625  
C105     C      0.044420000000     0.454310000000     0.314460000000    -0.107885   
C106     C      0.054640000000     0.457400000000     0.265290000000     0.0160376  
C107     C      0.823660000000     0.335350000000     0.923870000000     0.0187426  
C108     C      0.812310000000     0.280160000000     0.938360000000    -0.110316   
C109     C      0.756420000000     0.245730000000     0.951260000000     0.0175147  
C110     C      0.326760000000     0.793790000000     0.115500000000     0.0152308  
C111     C      0.270910000000     0.760410000000     0.128920000000    -0.106254   
C112     C      0.261070000000     0.708430000000     0.152400000000     0.0152742  
C113     C      0.829460000000     0.498740000000     0.142510000000     0.0261928  
C114     C      0.795830000000     0.499060000000     0.100560000000    -0.11202    
C115     C      0.739000000000     0.463180000000     0.109660000000     0.0233268  
C116     C      0.314010000000     0.539260000000     0.022590000000     0.0177046  
C117     C      0.287410000000     0.542580000000     0.977080000000    -0.103647   
C118     C      0.236860000000     0.492120000000     0.970630000000     0.0222596  
C119     C      0.823350000000     0.792500000000     0.620610000000     0.0168992  
C120     C      0.768560000000     0.756150000000     0.635960000000    -0.109222   
C121     C      0.758660000000     0.701080000000     0.649080000000     0.0165914  
C122     C      0.295050000000     0.362120000000     0.423900000000     0.0158295  
C123     C      0.280950000000     0.305590000000     0.435250000000    -0.10851    
C124     C      0.225120000000     0.271710000000     0.449330000000     0.0157298  
C125     C      0.671760000000     0.958840000000     0.440560000000     0.0173681  
C126     C      0.707890000000     0.966780000000     0.482360000000    -0.104883   
C127     C      0.765130000000     0.999190000000     0.472050000000     0.0177975  
C128     C      0.369590000000     0.158770000000     0.522120000000     0.0203307  
C129     C      0.325760000000     0.120720000000     0.551610000000    -0.105197   
C130     C      0.275330000000     0.089370000000     0.524410000000     0.0144898  
C131     C      0.035770000000     0.844660000000     0.420880000000     0.0167065  
C132     C      0.068480000000     0.821650000000     0.407910000000    -0.107567   
C133     C      0.036860000000     0.764110000000     0.399280000000     0.0154749  
C134     C      0.005470000000     0.226530000000     0.625490000000     0.014749   
C135     C      0.980970000000     0.257220000000     0.638390000000    -0.10806    
C136     C      0.017390000000     0.315100000000     0.628370000000     0.0137945  
C137     C      0.018370000000     0.967840000000     0.760500000000     0.0198375  
C138     C      0.992240000000     0.936800000000     0.802930000000    -0.111642   
C139     C      0.029370000000     0.923810000000     0.833440000000     0.0234111  
C140     C      0.075340000000     0.121250000000     0.237830000000     0.0192025  
C141     C      0.107230000000     0.160550000000     0.271700000000    -0.110234   
C142     C      0.106090000000     0.133540000000     0.318380000000     0.0167946  
C143     C      0.739470000000     0.755890000000     0.109250000000     0.0213411  
C144     C      0.780060000000     0.759380000000     0.080020000000    -0.105179   
C145     C      0.785570000000     0.792850000000     0.036200000000     0.017648   
C146     C      0.249260000000     0.247060000000     0.985290000000     0.0188192  
C147     C      0.303110000000     0.263320000000     0.007140000000    -0.106875   
C148     C      0.341590000000     0.278050000000     0.971420000000     0.0211648  
C149     C      0.852640000000     0.116280000000     0.009060000000     0.0201069  
C150     C      0.810470000000     0.093160000000     0.042560000000    -0.103261   
C151     C      0.787040000000     0.034520000000     0.051050000000     0.020798   
C152     C      0.208210000000     0.932170000000     0.042750000000     0.0227884  
C153     C      0.241970000000     0.962190000000     0.003460000000    -0.108975   
C154     C      0.297210000000     0.999450000000     0.019730000000     0.0195544  
C155     C      0.040910000000     0.807620000000     0.146140000000     0.0254354  
C156     C      0.025050000000     0.782640000000     0.101910000000    -0.115123   
C157     C      0.048610000000     0.747450000000     0.100870000000     0.0196071  
C158     C      0.076050000000     0.263020000000     0.930000000000     0.0229223  
C159     C      0.041760000000     0.264750000000     0.963500000000    -0.109938   
C160     C      0.056500000000     0.320760000000     0.969030000000     0.0160587  
H1       H      0.089790000000     0.993810000000     0.962030000000     0.196181   
H2       H      0.967580000000     0.078020000000     0.973720000000     0.195856   
H3       H      0.939800000000     0.912680000000     0.088120000000     0.191815   
H4       H      0.118030000000     0.094170000000     0.107460000000     0.194909   
H5       H      0.934760000000     0.036680000000     0.897240000000     0.127969   
H6       H      0.855320000000     0.964560000000     0.945030000000     0.195541   
H7       H      0.863800000000     0.929460000000     0.106070000000     0.132283   
H8       H      0.933450000000     0.926990000000     0.176380000000     0.1915     
H9       H      0.122550000000     0.020220000000     0.173170000000     0.128188   
H10      H      0.200330000000     0.047330000000     0.114890000000     0.194545   
H11      H      0.187990000000     0.077270000000     0.956380000000     0.125115   
H12      H      0.127290000000     0.106440000000     0.895180000000     0.19032    
H13      H      0.953080000000     0.986660000000     0.189600000000     0.205075   
H14      H      0.217330000000     0.109710000000     0.104600000000     0.192155   
H15      H      0.083250000000     0.074430000000     0.855540000000     0.199441   
H16      H      0.822080000000     0.971860000000     0.981820000000     0.202635   
H17      H      0.890100000000     0.952010000000     0.512270000000     0.200884   
H18      H      0.056360000000     0.125710000000     0.448580000000     0.196342   
H19      H      0.044080000000     0.088470000000     0.625750000000     0.194783   
H20      H      0.077610000000     0.961270000000     0.536660000000     0.193613   
H21      H      0.952100000000     0.135990000000     0.442140000000     0.132575   
H22      H      0.046310000000     0.209390000000     0.469890000000     0.185794   
H23      H      0.160840000000     0.181980000000     0.590770000000     0.140169   
H24      H      0.137230000000     0.108140000000     0.660940000000     0.189448   
H25      H      0.050940000000     0.918370000000     0.638530000000     0.135462   
H26      H      0.012400000000     0.859420000000     0.570010000000     0.188178   
H27      H      0.909810000000     0.887040000000     0.441180000000     0.140344   
H28      H      0.858900000000     0.965270000000     0.408240000000     0.19964    
H29      H      0.167210000000     0.072760000000     0.668210000000     0.201745   
H30      H      0.951270000000     0.819050000000     0.554290000000     0.203898   
H31      H      0.909040000000     0.968120000000     0.385680000000     0.199307   
H32      H      0.075340000000     0.243000000000     0.514120000000     0.202508   
H33      H      0.964470000000     0.471530000000     0.120240000000     0.197357   
H34      H      0.966680000000     0.515870000000     0.940640000000     0.191329   
H35      H      0.121720000000     0.654970000000     0.043540000000     0.195968   
H36      H      0.113010000000     0.470210000000     0.034830000000     0.193837   
H37      H      0.876110000000     0.498640000000     0.954660000000     0.130083   
H38      H      0.946340000000     0.606060000000     0.934590000000     0.194159   
H39      H      0.139890000000     0.679370000000     0.934660000000     0.141439   
H40      H      0.222090000000     0.688000000000     0.009810000000     0.193247   
H41      H      0.207620000000     0.533910000000     0.090060000000     0.126149   
H42      H      0.134460000000     0.439290000000     0.121490000000     0.183164   
H43      H      0.941160000000     0.355640000000     0.103140000000     0.136857   
H44      H      0.869050000000     0.385040000000     0.088590000000     0.188517   
H45      H      0.221070000000     0.653040000000     0.970520000000     0.197334   
H46      H      0.091760000000     0.401170000000     0.159180000000     0.201021   
H47      H      0.829570000000     0.386320000000     0.045450000000     0.200167   
H48      H      0.994250000000     0.659290000000     0.910830000000     0.203353   
H49      H      0.914150000000     0.523460000000     0.592010000000     0.19556    
H50      H      0.981890000000     0.484970000000     0.450290000000     0.192318   
H51      H      0.095320000000     0.672330000000     0.512870000000     0.198005   
H52      H      0.088990000000     0.506360000000     0.616010000000     0.200602   
H53      H      0.895240000000     0.475400000000     0.418560000000     0.128198   
H54      H      0.962610000000     0.572560000000     0.383070000000     0.194779   
H55      H      0.152000000000     0.643250000000     0.434880000000     0.13844    
H56      H      0.202140000000     0.685070000000     0.511290000000     0.189082   
H57      H      0.148060000000     0.629050000000     0.664520000000     0.139265   
H58      H      0.046830000000     0.485290000000     0.714880000000     0.200057   
H59      H      0.889060000000     0.433840000000     0.648880000000     0.126734   
H60      H      0.842110000000     0.400510000000     0.571210000000     0.189391   
H61      H      0.234610000000     0.682100000000     0.559090000000     0.200415   
H62      H      0.072660000000     0.549020000000     0.703940000000     0.194169   
H63      H      0.806880000000     0.415660000000     0.531790000000     0.198711   
H64      H      0.017580000000     0.596190000000     0.357350000000     0.200203   
H65      H      0.523100000000     0.959220000000     0.940060000000     0.195097   
H66      H      0.486830000000     0.928370000000     0.114850000000     0.197142   
H67      H      0.668540000000     0.089210000000     0.062330000000     0.193515   
H68      H      0.492290000000     0.099230000000     0.011760000000     0.193608   
H69      H      0.492060000000     0.843580000000     0.098380000000     0.125873   
H70      H      0.575620000000     0.899630000000     0.148270000000     0.189523   
H71      H      0.639060000000     0.090680000000     0.165650000000     0.14102    
H72      H      0.692320000000     0.172560000000     0.099670000000     0.189196   
H73      H      0.587890000000     0.190580000000     0.965670000000     0.135244   
H74      H      0.494020000000     0.134090000000     0.926130000000     0.18731    
H75      H      0.412290000000     0.943830000000     0.914650000000     0.138438   
H76      H      0.433190000000     0.853770000000     0.945690000000     0.194504   
H77      H      0.663430000000     0.208260000000     0.100300000000     0.200439   
H78      H      0.488320000000     0.108370000000     0.878730000000     0.201443   
H79      H      0.387300000000     0.851750000000     0.974280000000     0.1982     
H80      H      0.609740000000     0.938620000000     0.188330000000     0.203634   
H81      H      0.409920000000     0.975230000000     0.467170000000     0.191649   
H82      H      0.488810000000     0.076620000000     0.617060000000     0.202227   
H83      H      0.586390000000     0.982450000000     0.558500000000     0.189897   
H84      H      0.595150000000     0.150780000000     0.460780000000     0.194076   
H85      H      0.359110000000     0.018010000000     0.613340000000     0.136876   
H86      H      0.461500000000     0.963700000000     0.679300000000     0.200826   
H87      H      0.636730000000     0.013440000000     0.635560000000     0.130913   
H88      H      0.692410000000     0.043980000000     0.559520000000     0.18755    
H89      H      0.653230000000     0.109710000000     0.415780000000     0.128063   
H90      H      0.579940000000     0.129870000000     0.373720000000     0.183604   
H91      H      0.398910000000     0.067960000000     0.424530000000     0.134355   
H92      H      0.331010000000     0.991840000000     0.482620000000     0.187207   
H93      H      0.716030000000     0.106560000000     0.565380000000     0.203532   
H94      H      0.525310000000     0.097890000000     0.343000000000     0.202288   
H95      H      0.310190000000     0.991750000000     0.531540000000     0.19483    
H96      H      0.517360000000     0.986470000000     0.709820000000     0.202895   
H97      H      0.448530000000     0.518120000000     0.090030000000     0.198693   
H98      H      0.483140000000     0.444250000000     0.951450000000     0.199937   
H99      H      0.625030000000     0.637860000000     0.993320000000     0.198761   
H100     H      0.606390000000     0.476110000000     0.109100000000     0.196238   
H101     H      0.403030000000     0.487790000000     0.926050000000     0.133417   
H102     H      0.482170000000     0.527470000000     0.868820000000     0.189682   
H103     H      0.658310000000     0.576440000000     0.913930000000     0.14419    
H104     H      0.730760000000     0.656460000000     0.001470000000     0.195887   
H105     H      0.691550000000     0.574450000000     0.145680000000     0.125424   
H106     H      0.609560000000     0.514990000000     0.194450000000     0.182483   
H107     H      0.423180000000     0.403060000000     0.147210000000     0.13895    
H108     H      0.359000000000     0.415940000000     0.085780000000     0.189945   
H109     H      0.729970000000     0.601850000000     0.993210000000     0.201705   
H110     H      0.555560000000     0.484680000000     0.222250000000     0.199919   
H111     H      0.326830000000     0.388480000000     0.039470000000     0.19911    
H112     H      0.539840000000     0.560790000000     0.846760000000     0.203081   
H113     H      0.447750000000     0.468780000000     0.622810000000     0.198017   
H114     H      0.454480000000     0.538120000000     0.446270000000     0.194717   
H115     H      0.617010000000     0.649470000000     0.557430000000     0.194838   
H116     H      0.584200000000     0.460830000000     0.523400000000     0.191053   
H117     H      0.374250000000     0.549850000000     0.486010000000     0.128858   
H118     H      0.450380000000     0.640480000000     0.465060000000     0.189661   
H119     H      0.645900000000     0.694060000000     0.474100000000     0.128554   
H120     H      0.740950000000     0.652380000000     0.525470000000     0.200767   
H121     H      0.667200000000     0.495610000000     0.581590000000     0.125242   
H122     H      0.592070000000     0.403310000000     0.603270000000     0.186126   
H123     H      0.409310000000     0.354460000000     0.590140000000     0.139068   
H124     H      0.337860000000     0.386700000000     0.563330000000     0.197767   
H125     H      0.705290000000     0.650660000000     0.478550000000     0.193715   
H126     H      0.546640000000     0.367110000000     0.639370000000     0.202043   
H127     H      0.342730000000     0.425580000000     0.600710000000     0.194584   
H128     H      0.492360000000     0.674760000000     0.425860000000     0.201756   
H129     H      0.516460000000     0.391710000000     0.750390000000     0.0289833  
H130     H      0.581150000000     0.423630000000     0.732290000000     0.0324773  
H131     H      0.559250000000     0.380070000000     0.887910000000     0.0988013  
H132     H      0.586730000000     0.397530000000     0.809190000000     0.0496877  
H133     H      0.613610000000     0.466210000000     0.805020000000     0.057332   
H134     H      0.500770000000     0.390180000000     0.827650000000     0.0240418  
H135     H      0.534620000000     0.458300000000     0.831030000000     0.0348036  
H136     H      0.555050000000     0.498960000000     0.758960000000     0.0992289  
H137     H      0.578610000000     0.563430000000     0.315020000000     0.0312437  
H138     H      0.509840000000     0.532220000000     0.304760000000     0.0340923  
H139     H      0.515610000000     0.653740000000     0.181740000000     0.100015   
H140     H      0.583650000000     0.638690000000     0.258690000000     0.0542021  
H141     H      0.568540000000     0.579220000000     0.238070000000     0.0596699  
H142     H      0.489750000000     0.613890000000     0.252640000000     0.0238448  
H143     H      0.472990000000     0.552750000000     0.234220000000     0.0340541  
H144     H      0.548790000000     0.638500000000     0.326790000000     0.0967092  
H145     H      0.581810000000     0.786880000000     0.534600000000     0.0324116  
H146     H      0.512730000000     0.756860000000     0.535490000000     0.0327326  
H147     H      0.529430000000     0.852240000000     0.658300000000     0.0961733  
H148     H      0.589000000000     0.831070000000     0.603940000000     0.0516075  
H149     H      0.564450000000     0.851560000000     0.553570000000     0.0569327  
H150     H      0.496280000000     0.773280000000     0.626620000000     0.0248564  
H151     H      0.473810000000     0.797100000000     0.577070000000     0.036725   
H152     H      0.551880000000     0.736520000000     0.622900000000     0.0990286  
H153     H      0.558090000000     0.289350000000     0.481330000000     0.040143   
H154     H      0.602230000000     0.313060000000     0.437710000000     0.0242141  
H155     H      0.480760000000     0.291240000000     0.509550000000     0.09838    
H156     H      0.564010000000     0.368410000000     0.433040000000     0.0561756  
H157     H      0.536850000000     0.329680000000     0.387100000000     0.0477288  
H158     H      0.459000000000     0.267910000000     0.435310000000     0.0283543  
H159     H      0.465050000000     0.329270000000     0.416260000000     0.0346064  
H160     H      0.521040000000     0.242320000000     0.392560000000     0.0964552  
H161     H      0.540530000000     0.042850000000     0.790640000000     0.0258739  
H162     H      0.551850000000     0.098100000000     0.817360000000     0.0319382  
H163     H      0.610330000000     0.204380000000     0.690990000000     0.0984071  
H164     H      0.638990000000     0.148140000000     0.778030000000     0.0580135  
H165     H      0.613210000000     0.094030000000     0.744730000000     0.0665452  
H166     H      0.567790000000     0.165010000000     0.755520000000     0.0190171  
H167     H      0.531050000000     0.106220000000     0.729590000000     0.0263095  
H168     H      0.635860000000     0.068120000000     0.830290000000     0.0999763  
H169     H      0.413510000000     0.972500000000     0.316250000000     0.0335346  
H170     H      0.476230000000     0.979720000000     0.310170000000     0.0331705  
H171     H      0.502800000000     0.956410000000     0.249520000000     0.097826   
H172     H      0.426760000000     0.885830000000     0.284840000000     0.0520292  
H173     H      0.369340000000     0.891570000000     0.283110000000     0.0492492  
H174     H      0.414900000000     0.974650000000     0.230850000000     0.0336268  
H175     H      0.398660000000     0.914870000000     0.209320000000     0.0310081  
H176     H      0.422930000000     0.885180000000     0.363780000000     0.0988565  
H177     H      0.529140000000     0.797850000000     0.977520000000     0.0416213  
H178     H      0.516040000000     0.815530000000     0.920490000000     0.0244717  
H179     H      0.550440000000     0.699540000000     0.876110000000     0.0979995  
H180     H      0.587950000000     0.801060000000     0.898810000000     0.0526907  
H181     H      0.594930000000     0.779170000000     0.956070000000     0.0627066  
H182     H      0.496900000000     0.732730000000     0.893380000000     0.021776   
H183     H      0.498960000000     0.711630000000     0.950820000000     0.0392515  
H184     H      0.621390000000     0.883170000000     0.933260000000     0.0991659  
H185     H      0.581110000000     0.324310000000     0.118750000000     0.035962   
H186     H      0.583350000000     0.304330000000     0.176430000000     0.0196603  
H187     H      0.465100000000     0.150860000000     0.137940000000     0.0987026  
H188     H      0.493410000000     0.232800000000     0.170180000000     0.0522376  
H189     H      0.487490000000     0.253060000000     0.112270000000     0.062685   
H190     H      0.568180000000     0.220780000000     0.152750000000     0.025292   
H191     H      0.557810000000     0.238090000000     0.094930000000     0.0372714  
H192     H      0.523450000000     0.331400000000     0.191710000000     0.0954464  
H193     H      0.747770000000     0.230430000000     0.458990000000     0.0385393  
H194     H      0.751820000000     0.292370000000     0.447830000000     0.0232355  
H195     H      0.922510000000     0.310650000000     0.475700000000     0.0999749  
H196     H      0.819520000000     0.323610000000     0.512090000000     0.0645196  
H197     H      0.817320000000     0.261910000000     0.517980000000     0.0588572  
H198     H      0.844000000000     0.336410000000     0.432350000000     0.0289133  
H199     H      0.841370000000     0.274830000000     0.438880000000     0.0233856  
H200     H      0.722290000000     0.286170000000     0.521930000000     0.0959472  
H201     H      0.295940000000     0.802460000000     0.616840000000     0.0251678  
H202     H      0.302470000000     0.865310000000     0.606030000000     0.0365653  
H203     H      0.126610000000     0.791020000000     0.595360000000     0.0978017  
H204     H      0.229090000000     0.833760000000     0.548930000000     0.0550956  
H205     H      0.223270000000     0.770520000000     0.557500000000     0.0604776  
H206     H      0.210400000000     0.829080000000     0.627960000000     0.0224739  
H207     H      0.206860000000     0.767320000000     0.639110000000     0.0314213  
H208     H      0.321840000000     0.805980000000     0.542160000000     0.0953169  
H209     H      0.697730000000     0.462950000000     0.475890000000     0.0209492  
H210     H      0.724970000000     0.476230000000     0.423750000000     0.0221598  
H211     H      0.833190000000     0.612430000000     0.530730000000     0.0991672  
H212     H      0.793690000000     0.551070000000     0.442290000000     0.0599055  
H213     H      0.754310000000     0.576400000000     0.456140000000     0.0634104  
H214     H      0.773390000000     0.498240000000     0.520880000000     0.0300444  
H215     H      0.749110000000     0.539150000000     0.532010000000     0.0347912  
H216     H      0.656640000000     0.488080000000     0.395330000000     0.095457   
H217     H      0.281330000000     0.581760000000     0.548700000000     0.0290033  
H218     H      0.260930000000     0.584790000000     0.601330000000     0.0360984  
H219     H      0.399680000000     0.580610000000     0.673230000000     0.0977929  
H220     H      0.282010000000     0.516490000000     0.636050000000     0.0559805  
H221     H      0.304130000000     0.514470000000     0.583760000000     0.0659487  
H222     H      0.346560000000     0.610470000000     0.636670000000     0.0213185  
H223     H      0.369510000000     0.609540000000     0.585110000000     0.0291315  
H224     H      0.208980000000     0.482180000000     0.560710000000     0.100771   
H225     H      0.025860000000     0.658510000000     0.721080000000     0.028754   
H226     H      0.975320000000     0.645930000000     0.756100000000     0.0258201  
H227     H      0.049040000000     0.542610000000     0.813180000000     0.0978669  
H228     H      0.962660000000     0.556580000000     0.778230000000     0.0577463  
H229     H      0.014380000000     0.569910000000     0.744390000000     0.0574601  
H230     H      0.024950000000     0.628720000000     0.824090000000     0.033535   
H231     H      0.076690000000     0.639390000000     0.791200000000     0.0252831  
H232     H      0.914300000000     0.575950000000     0.712310000000     0.0948357  
H233     H      0.074030000000     0.532500000000     0.333370000000     0.0324943  
H234     H      0.123290000000     0.516720000000     0.325790000000     0.0282711  
H235     H      0.046520000000     0.526140000000     0.254590000000     0.0995221  
H236     H      0.044480000000     0.418990000000     0.330880000000     0.0496096  
H237     H      0.005240000000     0.449170000000     0.317130000000     0.0517317  
H238     H      0.027710000000     0.419380000000     0.252500000000     0.0322283  
H239     H      0.094680000000     0.465030000000     0.262360000000     0.0288623  
H240     H      0.098510000000     0.457070000000     0.394530000000     0.0987099  
H241     H      0.812600000000     0.350630000000     0.949790000000     0.0323427  
H242     H      0.800110000000     0.335660000000     0.892970000000     0.0236714  
H243     H      0.765670000000     0.180320000000     0.940870000000     0.0976329  
H244     H      0.819840000000     0.264550000000     0.910400000000     0.0526365  
H245     H      0.838680000000     0.280130000000     0.967230000000     0.0575039  
H246     H      0.729710000000     0.250220000000     0.924800000000     0.029516   
H247     H      0.751310000000     0.257720000000     0.982670000000     0.0333195  
H248     H      0.891150000000     0.358120000000     0.888190000000     0.099926   
H249     H      0.332120000000     0.779090000000     0.085800000000     0.0344751  
H250     H      0.353720000000     0.791800000000     0.143030000000     0.0265197  
H251     H      0.193650000000     0.687010000000     0.187670000000     0.0992554  
H252     H      0.261690000000     0.780420000000     0.151990000000     0.0504463  
H253     H      0.244650000000     0.754470000000     0.098670000000     0.0515276  
H254     H      0.284190000000     0.714520000000     0.184520000000     0.024732   
H255     H      0.273300000000     0.688320000000     0.132090000000     0.0405272  
H256     H      0.317160000000     0.860060000000     0.120900000000     0.0973956  
H257     H      0.827620000000     0.460500000000     0.149290000000     0.0245488  
H258     H      0.814070000000     0.504950000000     0.171520000000     0.0198721  
H259     H      0.700670000000     0.418720000000     0.053880000000     0.0995014  
H260     H      0.802020000000     0.538660000000     0.090900000000     0.0684164  
H261     H      0.806250000000     0.485730000000     0.072800000000     0.0728312  
H262     H      0.726230000000     0.480720000000     0.132280000000     0.0276182  
H263     H      0.734230000000     0.426350000000     0.127320000000     0.0184555  
H264     H      0.897310000000     0.568270000000     0.160430000000     0.100611   
H265     H      0.308490000000     0.499730000000     0.031410000000     0.0330521  
H266     H      0.295310000000     0.546620000000     0.048360000000     0.0332247  
H267     H      0.186830000000     0.483140000000     0.911920000000     0.0982961  
H268     H      0.280130000000     0.575830000000     0.974860000000     0.063981   
H269     H      0.313050000000     0.549420000000     0.950190000000     0.0579629  
H270     H      0.220170000000     0.472410000000     0.003080000000     0.0220677  
H271     H      0.245470000000     0.465340000000     0.955650000000     0.0227034  
H272     H      0.379000000000     0.615420000000     0.027510000000     0.102922   
H273     H      0.826440000000     0.782910000000     0.587300000000     0.0325649  
H274     H      0.852030000000     0.787450000000     0.644270000000     0.0284155  
H275     H      0.695880000000     0.677170000000     0.691250000000     0.100086   
H276     H      0.762270000000     0.770680000000     0.665320000000     0.0528591  
H277     H      0.740200000000     0.755840000000     0.608810000000     0.0547866  
H278     H      0.785190000000     0.701160000000     0.677800000000     0.0264999  
H279     H      0.766790000000     0.685870000000     0.621210000000     0.0342059  
H280     H      0.814990000000     0.855200000000     0.639780000000     0.0999493  
H281     H      0.287790000000     0.377260000000     0.452310000000     0.0379114  
H282     H      0.270040000000     0.365100000000     0.395060000000     0.0247555  
H283     H      0.228840000000     0.207570000000     0.427530000000     0.0979479  
H284     H      0.286390000000     0.291260000000     0.405340000000     0.0513112  
H285     H      0.307750000000     0.302720000000     0.462520000000     0.0558274  
H286     H      0.198490000000     0.280570000000     0.426100000000     0.0259651  
H287     H      0.222440000000     0.279940000000     0.483310000000     0.0333469  
H288     H      0.358240000000     0.383770000000     0.382680000000     0.0981259  
H289     H      0.676920000000     0.934770000000     0.418750000000     0.0233693  
H290     H      0.681590000000     0.996400000000     0.421450000000     0.0397605  
H291     H      0.781600000000     0.004060000000     0.543050000000     0.0968375  
H292     H      0.699300000000     0.986460000000     0.506140000000     0.0541993  
H293     H      0.700640000000     0.928580000000     0.498560000000     0.0516626  
H294     H      0.772780000000     0.037450000000     0.455770000000     0.0349232  
H295     H      0.774270000000     0.979020000000     0.449080000000     0.030233   
H296     H      0.595510000000     0.893560000000     0.449300000000     0.0977396  
H297     H      0.365050000000     0.193380000000     0.511970000000     0.0221553  
H298     H      0.367890000000     0.141620000000     0.491150000000     0.0313259  
H299     H      0.245190000000     0.042350000000     0.585150000000     0.0932789  
H300     H      0.336520000000     0.093460000000     0.571780000000     0.054779   
H301     H      0.319410000000     0.142530000000     0.575000000000     0.0530614  
H302     H      0.280500000000     0.064970000000     0.503000000000     0.026888   
H303     H      0.265020000000     0.116320000000     0.502960000000     0.0380472  
H304     H      0.441240000000     0.211830000000     0.555190000000     0.0974449  
H305     H      0.020480000000     0.826920000000     0.453990000000     0.0353924  
H306     H      0.002830000000     0.836170000000     0.396160000000     0.0285051  
H307     H      0.987470000000     0.743380000000     0.453230000000     0.102149   
H308     H      0.088140000000     0.843240000000     0.377100000000     0.0488763  
H309     H      0.098820000000     0.826740000000     0.434640000000     0.0548339  
H310     H      0.063260000000     0.751690000000     0.388720000000     0.0352939  
H311     H      0.007380000000     0.758880000000     0.371740000000     0.0259108  
H312     H      0.098120000000     0.920760000000     0.402480000000     0.0989805  
H313     H      0.040030000000     0.233960000000     0.647990000000     0.029356   
H314     H      0.018290000000     0.240570000000     0.591030000000     0.0347748  
H315     H      0.980200000000     0.334600000000     0.673940000000     0.0983155  
H316     H      0.943660000000     0.246110000000     0.619020000000     0.0578977  
H317     H      0.973670000000     0.248470000000     0.674340000000     0.0516742  
H318     H      0.022500000000     0.322810000000     0.592010000000     0.0396636  
H319     H      0.055770000000     0.326070000000     0.645680000000     0.0264457  
H320     H      0.938480000000     0.154750000000     0.647910000000     0.0996214  
H321     H      0.032080000000     0.945550000000     0.744620000000     0.0352046  
H322     H      0.052220000000     0.005080000000     0.768940000000     0.0238058  
H323     H      0.995310000000     0.858980000000     0.882030000000     0.101365   
H324     H      0.980400000000     0.959730000000     0.819990000000     0.0696334  
H325     H      0.957190000000     0.900520000000     0.794340000000     0.0586612  
H326     H      0.066690000000     0.959310000000     0.839180000000     0.0256211  
H327     H      0.037880000000     0.897870000000     0.817030000000     0.021013   
H328     H      0.950490000000     0.976870000000     0.741680000000     0.102883   
H329     H      0.034610000000     0.097880000000     0.247010000000     0.0312856  
H330     H      0.091890000000     0.094940000000     0.238490000000     0.0386872  
H331     H      0.025190000000     0.113120000000     0.316230000000     0.0985841  
H332     H      0.147840000000     0.183040000000     0.261920000000     0.0491316  
H333     H      0.092000000000     0.187730000000     0.272130000000     0.0507477  
H334     H      0.132060000000     0.163180000000     0.341340000000     0.0291861  
H335     H      0.120720000000     0.105840000000     0.318110000000     0.035237   
H336     H      0.084140000000     0.184240000000     0.188250000000     0.0981491  
H337     H      0.753150000000     0.794320000000     0.121280000000     0.0208385  
H338     H      0.735820000000     0.728920000000     0.139050000000     0.0318164  
H339     H      0.840110000000     0.777280000000     0.009790000000     0.0978258  
H340     H      0.817620000000     0.775970000000     0.099640000000     0.0495483  
H341     H      0.771150000000     0.720330000000     0.072790000000     0.0618634  
H342     H      0.782550000000     0.827290000000     0.041570000000     0.0373058  
H343     H      0.753640000000     0.770470000000     0.012130000000     0.0255799  
H344     H      0.675240000000     0.765760000000     0.080470000000     0.100246   
H345     H      0.237260000000     0.213920000000     0.965280000000     0.0337443  
H346     H      0.250270000000     0.279140000000     0.961820000000     0.0231086  
H347     H      0.408400000000     0.270110000000     0.995020000000     0.100098   
H348     H      0.314860000000     0.296690000000     0.026680000000     0.0591508  
H349     H      0.302510000000     0.230990000000     0.029970000000     0.0587641  
H350     H      0.340430000000     0.308300000000     0.946740000000     0.0315443  
H351     H      0.330500000000     0.243860000000     0.953150000000     0.022918   
H352     H      0.209870000000     0.265670000000     0.028960000000     0.0954292  
H353     H      0.851910000000     0.150260000000     0.990220000000     0.0212215  
H354     H      0.845150000000     0.089060000000     0.983930000000     0.0292914  
H355     H      0.756070000000     0.008210000000     0.115760000000     0.102033   
H356     H      0.825910000000     0.111400000000     0.074410000000     0.0567851  
H357     H      0.779520000000     0.102360000000     0.028990000000     0.0584813  
H358     H      0.817370000000     0.024830000000     0.065410000000     0.0420242  
H359     H      0.771200000000     0.015800000000     0.019440000000     0.0340595  
H360     H      0.923350000000     0.171520000000     0.040690000000     0.0986831  
H361     H      0.216640000000     0.957670000000     0.069660000000     0.0313833  
H362     H      0.217510000000     0.901440000000     0.057070000000     0.0218293  
H363     H      0.322250000000     0.018040000000     0.952290000000     0.0981542  
H364     H      0.242150000000     0.934150000000     0.982840000000     0.0563395  
H365     H      0.225760000000     0.984600000000     0.982400000000     0.0644521  
H366     H      0.307650000000     0.981200000000     0.050370000000     0.0403352  
H367     H      0.299050000000     0.035270000000     0.028450000000     0.0323586  
H368     H      0.134680000000     0.870290000000     0.020950000000     0.0979528  
H369     H      0.082880000000     0.835680000000     0.147260000000     0.0252045  
H370     H      0.034530000000     0.777330000000     0.173770000000     0.0212188  
H371     H      0.038470000000     0.751820000000     0.028850000000     0.100851   
H372     H      0.982320000000     0.759890000000     0.097750000000     0.0671251  
H373     H      0.039830000000     0.812830000000     0.073990000000     0.0747369  
H374     H      0.030560000000     0.714670000000     0.126440000000     0.0388111  
H375     H      0.090820000000     0.768860000000     0.109220000000     0.0265822  
H376     H      0.005750000000     0.831910000000     0.187910000000     0.0971561  
H377     H      0.115440000000     0.275100000000     0.945540000000     0.0295663  
H378     H      0.079900000000     0.291030000000     0.900940000000     0.0207268  
H379     H      0.034240000000     0.299920000000     0.037470000000     0.0981391  
H380     H      0.000470000000     0.243530000000     0.951870000000     0.0582228  
H381     H      0.047000000000     0.246120000000     0.996110000000     0.0690554  
H382     H      0.040400000000     0.335070000000     0.939350000000     0.0382546  
H383     H      0.099220000000     0.345060000000     0.970370000000     0.0269178  
H384     H      0.047960000000     0.209560000000     0.879430000000     0.0963332  
N1       N      0.556720000000     0.413850000000     0.880550000000    -0.219231   
N2       N      0.549710000000     0.472540000000     0.736780000000    -0.217841   
N3       N      0.512190000000     0.617110000000     0.188360000000    -0.219618   
N4       N      0.542590000000     0.601310000000     0.337020000000    -0.21834    
N5       N      0.516180000000     0.851310000000     0.624960000000    -0.219628   
N6       N      0.549680000000     0.732300000000     0.588980000000    -0.218321   
N7       N      0.485270000000     0.320380000000     0.484720000000    -0.219773   
N8       N      0.534390000000     0.243730000000     0.425910000000    -0.218431   
N9       N      0.594200000000     0.164320000000     0.694350000000    -0.220341   
N10      N      0.602870000000     0.068340000000     0.838640000000    -0.219672   
N11      N      0.478130000000     0.962140000000     0.225070000000    -0.220043   
N12      N      0.434260000000     0.924450000000     0.360740000000    -0.221007   
N13      N      0.541740000000     0.695970000000     0.909190000000    -0.219981   
N14      N      0.587090000000     0.868780000000     0.949330000000    -0.219674   
N15      N      0.499440000000     0.166360000000     0.121700000000    -0.219895   
N16      N      0.534890000000     0.336960000000     0.159280000000    -0.220076   
N17      N      0.903050000000     0.331840000000     0.474720000000    -0.221056   
N18      N      0.720170000000     0.254610000000     0.508600000000    -0.219503   
N19      N      0.144920000000     0.768550000000     0.598590000000    -0.220122   
N20      N      0.325030000000     0.838420000000     0.554730000000    -0.218238   
N21      N      0.828850000000     0.577370000000     0.523150000000    -0.218708   
N22      N      0.670890000000     0.501560000000     0.426710000000    -0.220466   
N23      N      0.388530000000     0.570480000000     0.640570000000    -0.220806   
N24      N      0.212330000000     0.516700000000     0.568670000000    -0.218236   
N25      N      0.044880000000     0.568450000000     0.830280000000    -0.219482   
N26      N      0.950270000000     0.602740000000     0.700320000000    -0.216142   
N27      N      0.046660000000     0.497350000000     0.238480000000    -0.217959   
N28      N      0.088190000000     0.485960000000     0.386450000000    -0.218411   
N29      N      0.743980000000     0.191610000000     0.956890000000    -0.220282   
N30      N      0.878320000000     0.366990000000     0.914800000000    -0.220905   
N31      N      0.206310000000     0.677760000000     0.161180000000    -0.219328   
N32      N      0.338520000000     0.847490000000     0.105980000000    -0.220561   
N33      N      0.706340000000     0.450990000000     0.068580000000    -0.220422   
N34      N      0.883200000000     0.538960000000     0.138980000000    -0.220999   
N35      N      0.197990000000     0.499970000000     0.942130000000    -0.220771   
N36      N      0.368940000000     0.577320000000     0.023790000000    -0.219464   
N37      N      0.705320000000     0.669020000000     0.662240000000    -0.218435   
N38      N      0.834520000000     0.846150000000     0.618900000000    -0.21851    
N39      N      0.209740000000     0.217190000000     0.448370000000    -0.218966   
N40      N      0.349060000000     0.391850000000     0.411860000000    -0.218813   
N41      N      0.797590000000     0.006510000000     0.513290000000    -0.219258   
N42      N      0.617740000000     0.933080000000     0.452480000000    -0.219565   
N43      N      0.234600000000     0.056270000000     0.554750000000    -0.220465   
N44      N      0.420010000000     0.174250000000     0.545740000000    -0.220703   
N45      N      0.011000000000     0.732970000000     0.439040000000    -0.218373   
N46      N      0.066760000000     0.900670000000     0.422690000000    -0.218333   
N47      N      0.997070000000     0.345980000000     0.643260000000    -0.216654   
N48      N      0.969790000000     0.170830000000     0.627640000000    -0.218648   
N49      N      0.007250000000     0.898270000000     0.876010000000    -0.221985   
N50      N      0.982680000000     0.978200000000     0.729570000000    -0.220613   
N51      N      0.053750000000     0.106670000000     0.334260000000    -0.219003   
N52      N      0.075890000000     0.145810000000     0.192840000000    -0.221659   
N53      N      0.834930000000     0.807250000000     0.018040000000    -0.219898   
N54      N      0.688850000000     0.739210000000     0.085810000000    -0.219788   
N55      N      0.394000000000     0.296020000000     0.991040000000    -0.220488   
N56      N      0.211890000000     0.234840000000     0.018380000000    -0.220381   
N57      N      0.746290000000     0.014630000000     0.082370000000    -0.21955    
N58      N      0.903860000000     0.133760000000     0.031450000000    -0.220714   
N59      N      0.333620000000     0.012420000000     0.985390000000    -0.220027   
N60      N      0.153450000000     0.908660000000     0.028550000000    -0.221336   
N61      N      0.040490000000     0.728650000000     0.056920000000    -0.219996   
N62      N      0.012360000000     0.833720000000     0.154490000000    -0.220713   
N63      N      0.037710000000     0.325810000000     0.009840000000    -0.218737   
N64      N      0.055150000000     0.212010000000     0.913720000000    -0.220513   
O1       O      0.179390000000     0.148130000000     0.020000000000    -0.375092   
O2       O      0.134000000000     0.181190000000     0.045550000000    -0.377685   
O3       O      0.019480000000     0.972100000000     0.901010000000    -0.382097   
O4       O      0.999300000000     0.900570000000     0.948430000000    -0.374563   
O5       O      0.039320000000     0.129420000000     0.919930000000    -0.382057   
O6       O      0.056750000000     0.171990000000     0.981870000000    -0.375324   
O7       O      0.150610000000     0.982180000000     0.033940000000    -0.378288   
O8       O      0.077170000000     0.908420000000     0.018400000000    -0.37737    
O9       O      0.203570000000     0.076950000000     0.986820000000    -0.340291   
O10      O      0.196360000000     0.074490000000     0.097270000000    -0.53541    
O11      O      0.092210000000     0.082460000000     0.886130000000    -0.52553    
O12      O      0.958090000000     0.028370000000     0.883540000000    -0.347402   
O13      O      0.090150000000     0.094080000000     0.992650000000    -0.49415    
O14      O      0.072520000000     0.002940000000     0.981380000000    -0.634375   
O15      O      0.013600000000     0.910080000000     0.146640000000    -0.386013   
O16      O      0.011370000000     0.872710000000     0.085350000000    -0.37552    
O17      O      0.904110000000     0.058330000000     0.028110000000    -0.381088   
O18      O      0.977900000000     0.130480000000     0.046610000000    -0.37863    
O19      O      0.869610000000     0.892870000000     0.025490000000    -0.383591   
O20      O      0.921030000000     0.859070000000     0.015170000000    -0.378348   
O21      O      0.050560000000     0.070300000000     0.164620000000    -0.391035   
O22      O      0.062360000000     0.140430000000     0.118220000000    -0.378202   
O23      O      0.957490000000     0.963430000000     0.173430000000    -0.525955   
O24      O      0.088290000000     0.999080000000     0.185750000000    -0.333768   
O25      O      0.863050000000     0.960010000000     0.090070000000    -0.346359   
O26      O      0.852530000000     0.971290000000     0.974570000000    -0.525651   
O27      O      0.964050000000     0.944300000000     0.072590000000    -0.634397   
O28      O      0.982670000000     0.037260000000     0.084550000000    -0.495187   
O29      O      0.072020000000     0.980010000000     0.074720000000    -0.497647   
O30      O      0.983760000000     0.059650000000     0.990440000000    -0.63207    
O31      O      0.092260000000     0.071320000000     0.086970000000    -0.634698   
O32      O      0.963340000000     0.967850000000     0.978560000000    -0.495345   
O33      O      0.014570000000     0.904640000000     0.470090000000    -0.379503   
O34      O      0.084520000000     0.977550000000     0.444140000000    -0.382293   
O35      O      0.869450000000     0.023520000000     0.479070000000    -0.38118    
O36      O      0.868460000000     0.015030000000     0.554420000000    -0.379051   
O37      O      0.998530000000     0.070780000000     0.388890000000    -0.382047   
O38      O      0.077700000000     0.075660000000     0.399560000000    -0.370562   
O39      O      0.899550000000     0.876520000000     0.571550000000    -0.371163   
O40      O      0.882920000000     0.931530000000     0.603290000000    -0.372033   
O41      O      0.898490000000     0.871510000000     0.471370000000    -0.354981   
O42      O      0.979720000000     0.853650000000     0.555490000000    -0.52223    
O43      O      0.895700000000     0.979360000000     0.406950000000    -0.5274     
O44      O      0.936890000000     0.108790000000     0.421180000000    -0.338695   
O45      O      0.996550000000     0.991040000000     0.461400000000    -0.496765   
O46      O      0.926750000000     0.974910000000     0.515780000000    -0.631559   
O47      O      0.032800000000     0.996380000000     0.671790000000    -0.383195   
O48      O      0.958150000000     0.000480000000     0.661210000000    -0.379994   
O49      O      0.142190000000     0.187600000000     0.493070000000    -0.379135   
O50      O      0.155670000000     0.132270000000     0.458720000000    -0.372609   
O51      O      0.020160000000     0.160860000000     0.583850000000    -0.384858   
O52      O      0.949560000000     0.090480000000     0.611620000000    -0.372436   
O53      O      0.158760000000     0.031830000000     0.582860000000    -0.386079   
O54      O      0.168580000000     0.056360000000     0.509020000000    -0.368058   
O55      O      0.139840000000     0.078880000000     0.654130000000    -0.526699   
O56      O      0.086310000000     0.947960000000     0.639810000000    -0.347459   
O57      O      0.133160000000     0.191020000000     0.591460000000    -0.356413   
O58      O      0.061580000000     0.211470000000     0.499790000000    -0.52242    
O59      O      0.038300000000     0.073360000000     0.598030000000    -0.634085   
O60      O      0.107450000000     0.087470000000     0.545070000000    -0.500036   
O61      O      0.988660000000     0.965160000000     0.588240000000    -0.496395   
O62      O      0.043610000000     0.098080000000     0.471790000000    -0.63522    
O63      O      0.059060000000     0.980260000000     0.535910000000    -0.632248   
O64      O      0.976100000000     0.084500000000     0.523410000000    -0.497935   
O65      O      0.033030000000     0.377270000000     0.055990000000    -0.379089   
O66      O      0.040820000000     0.401020000000     0.981850000000    -0.376125   
O67      O      0.899450000000     0.502540000000     0.085760000000    -0.377202   
O68      O      0.965190000000     0.566750000000     0.122940000000    -0.37448    
O69      O      0.897710000000     0.416010000000     0.972660000000    -0.386013   
O70      O      0.961330000000     0.422680000000     0.932850000000    -0.379157   
O71      O      0.044890000000     0.467130000000     0.172430000000    -0.371648   
O72      O      0.041170000000     0.541020000000     0.174170000000    -0.377384   
O73      O      0.966290000000     0.370670000000     0.128330000000    -0.354049   
O74      O      0.100610000000     0.424760000000     0.132790000000    -0.523058   
O75      O      0.863440000000     0.400990000000     0.060440000000    -0.522509   
O76      O      0.873130000000     0.502340000000     0.985930000000    -0.351555   
O77      O      0.985060000000     0.438560000000     0.028740000000    -0.495313   
O78      O      0.985550000000     0.485800000000     0.094860000000    -0.633742   
O79      O      0.186490000000     0.632530000000     0.100820000000    -0.379311   
O80      O      0.123020000000     0.629930000000     0.138010000000    -0.376546   
O81      O      0.044260000000     0.595210000000     0.896840000000    -0.385207   
O82      O      0.045010000000     0.520140000000     0.893570000000    -0.375015   
O83      O      0.039600000000     0.674440000000     0.010930000000    -0.375993   
O84      O      0.046620000000     0.658120000000     0.085720000000    -0.37782    
O85      O      0.182410000000     0.539020000000     0.993420000000    -0.386256   
O86      O      0.119940000000     0.495030000000     0.941440000000    -0.373882   
O87      O      0.209750000000     0.654980000000     0.998430000000    -0.52934    
O88      O      0.222610000000     0.570460000000     0.078400000000    -0.334004   
O89      O      0.117170000000     0.689880000000     0.946530000000    -0.352995   
O90      O      0.982770000000     0.628880000000     0.931350000000    -0.520104   
O91      O      0.099750000000     0.618960000000     0.039130000000    -0.632417   
O92      O      0.098650000000     0.571660000000     0.973060000000    -0.500808   
O93      O      0.095970000000     0.535970000000     0.099840000000    -0.49538    
O94      O      0.987510000000     0.520660000000     0.968100000000    -0.631995   
O95      O      0.093770000000     0.488210000000     0.035680000000    -0.632396   
O96      O      0.988940000000     0.567980000000     0.033210000000    -0.493554   
O97      O      0.989910000000     0.417870000000     0.641240000000    -0.377831   
O98      O      0.026660000000     0.406710000000     0.584850000000    -0.370667   
O99      O      0.865640000000     0.528350000000     0.514320000000    -0.378243   
O100     O      0.913560000000     0.606280000000     0.542560000000    -0.372301   
O101     O      0.903420000000     0.404520000000     0.489650000000    -0.384566   
O102     O      0.976530000000     0.397470000000     0.501180000000    -0.375182   
O103     O      0.962360000000     0.545650000000     0.668790000000    -0.386193   
O104     O      0.978820000000     0.622280000000     0.630920000000    -0.372726   
O105     O      0.918840000000     0.440310000000     0.670140000000    -0.333447   
O106     O      0.048850000000     0.514570000000     0.695940000000    -0.5323     
O107     O      0.840100000000     0.421540000000     0.545050000000    -0.527961   
O108     O      0.873780000000     0.479940000000     0.438310000000    -0.34918    
O109     O      0.965780000000     0.458410000000     0.563460000000    -0.497545   
O110     O      0.944060000000     0.528450000000     0.578110000000    -0.635336   
O111     O      0.141060000000     0.692300000000     0.591280000000    -0.387672   
O112     O      0.068640000000     0.700430000000     0.578790000000    -0.376391   
O113     O      0.066930000000     0.541490000000     0.412210000000    -0.380051   
O114     O      0.071500000000     0.477450000000     0.458280000000    -0.37742    
O115     O      0.035080000000     0.670580000000     0.440390000000    -0.366629   
O116     O      0.999380000000     0.678530000000     0.499440000000    -0.374309   
O117     O      0.175390000000     0.566850000000     0.571320000000    -0.378804   
O118     O      0.127400000000     0.486570000000     0.547840000000    -0.375397   
O119     O      0.202440000000     0.670600000000     0.541490000000    -0.521468   
O120     O      0.164360000000     0.615020000000     0.647820000000    -0.353464   
O121     O      0.128060000000     0.657020000000     0.425020000000    -0.356289   
O122     O      0.999470000000     0.585740000000     0.384410000000    -0.523614   
O123     O      0.074950000000     0.636010000000     0.521240000000    -0.632681   
O124     O      0.096400000000     0.565990000000     0.506810000000    -0.497669   
O125     O      0.048860000000     0.590580000000     0.610340000000    -0.504629   
O126     O      0.992500000000     0.504260000000     0.476130000000    -0.627929   
O127     O      0.069810000000     0.519440000000     0.596040000000    -0.634079   
O128     O      0.971320000000     0.575040000000     0.490460000000    -0.493269   
O129     O      0.408610000000     0.024200000000     0.962200000000    -0.382546   
O130     O      0.396180000000     0.014180000000     0.036000000000    -0.377559   
O131     O      0.534880000000     0.883330000000     0.987220000000    -0.382215   
O132     O      0.611990000000     0.949750000000     0.965730000000    -0.377832   
O133     O      0.409270000000     0.870140000000     0.067770000000    -0.383757   
O134     O      0.394260000000     0.931060000000     0.090300000000    -0.373975   
O135     O      0.546140000000     0.052710000000     0.890060000000    -0.380046   
O136     O      0.617560000000     0.044320000000     0.910280000000    -0.373028   
O137     O      0.435990000000     0.975470000000     0.897100000000    -0.348796   
O138     O      0.491630000000     0.106610000000     0.910770000000    -0.525303   
O139     O      0.423160000000     0.862390000000     0.971150000000    -0.530829   
O140     O      0.483210000000     0.834820000000     0.067160000000    -0.335736   
O141     O      0.452700000000     0.968360000000     0.010030000000    -0.500557   
O142     O      0.526660000000     0.975320000000     0.966770000000    -0.629897   
O143     O      0.673280000000     0.167320000000     0.995520000000    -0.378166   
O144     O      0.689540000000     0.107360000000     0.972700000000    -0.378106   
O145     O      0.540020000000     0.986510000000     0.176790000000    -0.384715   
O146     O      0.465770000000     0.988780000000     0.153900000000    -0.375401   
O147     O      0.671540000000     0.004630000000     0.103580000000    -0.379264   
O148     O      0.688130000000     0.020610000000     0.030320000000    -0.376158   
O149     O      0.551990000000     0.153490000000     0.082340000000    -0.380361   
O150     O      0.474350000000     0.086650000000     0.102210000000    -0.381103   
O151     O      0.664230000000     0.179500000000     0.089890000000    -0.527825   
O152     O      0.595330000000     0.199660000000     0.996810000000    -0.346211   
O153     O      0.652950000000     0.067060000000     0.163660000000    -0.353399   
O154     O      0.592450000000     0.933410000000     0.159140000000    -0.520522   
O155     O      0.631960000000     0.069360000000     0.055230000000    -0.632281   
O156     O      0.558130000000     0.062690000000     0.098780000000    -0.501603   
O157     O      0.581340000000     0.083050000000     0.974120000000    -0.496858   
O158     O      0.503860000000     0.954120000000     0.091080000000    -0.637654   
O159     O      0.508050000000     0.077400000000     0.016400000000    -0.635695   
O160     O      0.576370000000     0.960370000000     0.049010000000    -0.494726   
O161     O      0.511630000000     0.159610000000     0.426510000000    -0.378907   
O162     O      0.550200000000     0.202300000000     0.488460000000    -0.372032   
O163     O      0.367360000000     0.925240000000     0.556610000000    -0.376971   
O164     O      0.402100000000     0.886480000000     0.523090000000    -0.373619   
O165     O      0.414290000000     0.096470000000     0.541540000000    -0.377744   
O166     O      0.491040000000     0.164590000000     0.560830000000    -0.37638    
O167     O      0.465600000000     0.999020000000     0.392970000000    -0.382295   
O168     O      0.455050000000     0.926140000000     0.434570000000    -0.379809   
O169     O      0.416930000000     0.064150000000     0.400980000000    -0.349963   
O170     O      0.543240000000     0.106610000000     0.371700000000    -0.525132   
O171     O      0.337410000000     0.996020000000     0.514060000000    -0.52478    
O172     O      0.387550000000     0.009700000000     0.620340000000    -0.364282   
O173     O      0.475010000000     0.090700000000     0.502570000000    -0.496518   
O174     O      0.441390000000     0.996980000000     0.483610000000    -0.630485   
O175     O      0.625300000000     0.006190000000     0.474410000000    -0.381837   
O176     O      0.548930000000     0.931710000000     0.479200000000    -0.374033   
O177     O      0.569020000000     0.090660000000     0.662060000000    -0.378457   
O178     O      0.584500000000     0.164570000000     0.619610000000    -0.378244   
O179     O      0.529810000000     0.932470000000     0.626710000000    -0.381274   
O180     O      0.499040000000     0.892210000000     0.562750000000    -0.376286   
O181     O      0.677660000000     0.168350000000     0.502610000000    -0.384066   
O182     O      0.641170000000     0.205670000000     0.535710000000    -0.376395   
O183     O      0.690380000000     0.075340000000     0.552600000000    -0.528531   
O184     O      0.675650000000     0.106990000000     0.441310000000    -0.333125   
O185     O      0.625870000000     0.032360000000     0.652460000000    -0.34521    
O186     O      0.498750000000     0.982640000000     0.681220000000    -0.521164   
O187     O      0.568370000000     0.001910000000     0.550280000000    -0.631726   
O188     O      0.600850000000     0.095550000000     0.569820000000    -0.494497   
O189     O      0.543770000000     0.026960000000     0.461180000000    -0.49689    
O190     O      0.497880000000     0.066200000000     0.592160000000    -0.630024   
O191     O      0.574450000000     0.119940000000     0.479150000000    -0.634991   
O192     O      0.467380000000     0.972790000000     0.573080000000    -0.49368    
O193     O      0.522150000000     0.406000000000     0.148170000000    -0.385357   
O194     O      0.544010000000     0.379850000000     0.090750000000    -0.374397   
O195     O      0.394090000000     0.518170000000     0.016820000000    -0.381179   
O196     O      0.453370000000     0.599480000000     0.033130000000    -0.374885   
O197     O      0.406530000000     0.375980000000     0.999230000000    -0.37831    
O198     O      0.473030000000     0.358110000000     0.011910000000    -0.376542   
O199     O      0.514570000000     0.549790000000     0.163760000000    -0.378326   
O200     O      0.523280000000     0.617940000000     0.115670000000    -0.372489   
O201     O      0.440650000000     0.435630000000     0.161840000000    -0.357158   
O202     O      0.572370000000     0.497560000000     0.194500000000    -0.522592   
O203     O      0.358390000000     0.412320000000     0.054580000000    -0.525002   
O204     O      0.384220000000     0.454420000000     0.943650000000    -0.351973   
O205     O      0.481020000000     0.434340000000     0.065670000000    -0.498458   
O206     O      0.474090000000     0.516400000000     0.074470000000    -0.634813   
O207     O      0.674870000000     0.658540000000     0.078570000000    -0.377477   
O208     O      0.610860000000     0.679210000000     0.060160000000    -0.379203   
O209     O      0.558930000000     0.483250000000     0.905630000000    -0.387006   
O210     O      0.559440000000     0.419440000000     0.954540000000    -0.372847   
O211     O      0.554530000000     0.627160000000     0.920970000000    -0.379454   
O212     O      0.537680000000     0.656790000000     0.978920000000    -0.371641   
O213     O      0.684600000000     0.513880000000     0.069070000000    -0.381291   
O214     O      0.630880000000     0.440560000000     0.035490000000    -0.37554    
O215     O      0.716640000000     0.619680000000     0.007390000000    -0.527875   
O216     O      0.711620000000     0.594860000000     0.119680000000    -0.33386    
O217     O      0.645200000000     0.601010000000     0.914300000000    -0.355607   
O218     O      0.519370000000     0.545320000000     0.872450000000    -0.516062   
O219     O      0.602240000000     0.603140000000     0.004900000000    -0.629932   
O220     O      0.609890000000     0.521190000000     0.996100000000    -0.498334   
O221     O      0.582130000000     0.570290000000     0.096350000000    -0.496124   
O222     O      0.500100000000     0.467100000000     0.974780000000    -0.63587    
O223     O      0.588520000000     0.489810000000     0.088210000000    -0.63524    
O224     O      0.493880000000     0.547680000000     0.982770000000    -0.499726   
O225     O      0.496490000000     0.371520000000     0.538350000000    -0.383315   
O226     O      0.502310000000     0.402780000000     0.465720000000    -0.376724   
O227     O      0.399850000000     0.538190000000     0.581650000000    -0.38008    
O228     O      0.459550000000     0.561570000000     0.639640000000    -0.379106   
O229     O      0.376480000000     0.436090000000     0.473480000000    -0.377835   
O230     O      0.434580000000     0.441580000000     0.427520000000    -0.376262   
O231     O      0.532470000000     0.449680000000     0.665810000000    -0.372878   
O232     O      0.538620000000     0.524940000000     0.681350000000    -0.374432   
O233     O      0.432960000000     0.367630000000     0.616550000000    -0.356634   
O234     O      0.559880000000     0.394160000000     0.615650000000    -0.51923    
O235     O      0.353700000000     0.420590000000     0.573870000000    -0.531142   
O236     O      0.355520000000     0.512220000000     0.493660000000    -0.340079   
O237     O      0.461660000000     0.444870000000     0.523060000000    -0.499511   
O238     O      0.469020000000     0.484230000000     0.597610000000    -0.62991    
O239     O      0.678320000000     0.623330000000     0.601430000000    -0.379489   
O240     O      0.619970000000     0.619840000000     0.646020000000    -0.372871   
O241     O      0.541800000000     0.617640000000     0.407590000000    -0.382338   
O242     O      0.528750000000     0.539170000000     0.393370000000    -0.375322   
O243     O      0.544630000000     0.683520000000     0.534960000000    -0.372429   
O244     O      0.545820000000     0.655140000000     0.608010000000    -0.3749     
O245     O      0.660260000000     0.533000000000     0.486700000000    -0.386611   
O246     O      0.594560000000     0.497990000000     0.434410000000    -0.375512   
O247     O      0.708040000000     0.637650000000     0.508870000000    -0.528908   
O248     O      0.684400000000     0.532390000000     0.587270000000    -0.340829   
O249     O      0.616820000000     0.701120000000     0.465700000000    -0.346254   
O250     O      0.482750000000     0.651200000000     0.452250000000    -0.526111   
O251     O      0.592060000000     0.614920000000     0.550520000000    -0.630065   
O252     O      0.584470000000     0.575230000000     0.477980000000    -0.501581   
O253     O      0.578070000000     0.521970000000     0.600930000000    -0.492889   
O254     O      0.474790000000     0.536970000000     0.472970000000    -0.632125   
O255     O      0.568870000000     0.481450000000     0.528500000000    -0.631676   
O256     O      0.484900000000     0.577280000000     0.546150000000    -0.496307   
Zr1      Zr     0.134190000000     0.054310000000     0.034970000000     1.37224    
Zr2      Zr     0.027190000000     0.042370000000     0.940020000000     1.37378    
Zr3      Zr     0.027350000000     0.996520000000     0.124610000000     1.38572    
Zr4      Zr     0.921200000000     0.985860000000     0.030340000000     1.37539    
Zr5      Zr     0.046880000000     0.110430000000     0.044550000000     1.374      
Zr6      Zr     0.008870000000     0.929000000000     0.021390000000     1.37587    
Zr7      Zr     0.969780000000     0.925420000000     0.520840000000     1.37315    
Zr8      Zr     0.954170000000     0.041250000000     0.457680000000     1.37648    
Zr9      Zr     0.077270000000     0.020340000000     0.603000000000     1.38082    
Zr10     Zr     0.066310000000     0.138360000000     0.538240000000     1.37879    
Zr11     Zr     0.085960000000     0.047650000000     0.477470000000     1.37011    
Zr12     Zr     0.948850000000     0.018000000000     0.582060000000     1.37946    
Zr13     Zr     0.038050000000     0.446970000000     0.094880000000     1.3683     
Zr14     Zr     0.933420000000     0.478560000000     0.028540000000     1.37374    
Zr15     Zr     0.150260000000     0.577510000000     0.039510000000     1.37219    
Zr16     Zr     0.044980000000     0.609540000000     0.974110000000     1.37667    
Zr17     Zr     0.041190000000     0.482360000000     0.969350000000     1.37542    
Zr18     Zr     0.043420000000     0.575470000000     0.098090000000     1.38163    
Zr19     Zr     0.993780000000     0.501670000000     0.629200000000     1.38053    
Zr20     Zr     0.917930000000     0.486640000000     0.511430000000     1.37765    
Zr21     Zr     0.122660000000     0.607730000000     0.573620000000     1.37676    
Zr22     Zr     0.046290000000     0.593000000000     0.455310000000     1.36461    
Zr23     Zr     0.041900000000     0.477580000000     0.529150000000     1.37293    
Zr24     Zr     0.999900000000     0.617050000000     0.557500000000     1.38       
Zr25     Zr     0.493000000000     0.033240000000     0.952370000000     1.37897    
Zr26     Zr     0.487760000000     0.911970000000     0.026030000000     1.37831    
Zr27     Zr     0.596580000000     0.125610000000     0.039040000000     1.37543    
Zr28     Zr     0.591700000000     0.004740000000     0.113240000000     1.3774     
Zr29     Zr     0.470170000000     0.012120000000     0.074880000000     1.38039    
Zr30     Zr     0.615220000000     0.025210000000     0.990370000000     1.37549    
Zr31     Zr     0.496300000000     0.070900000000     0.438230000000     1.38335    
Zr32     Zr     0.421580000000     0.018190000000     0.548760000000     1.37204    
Zr33     Zr     0.620900000000     0.075530000000     0.504090000000     1.37773    
Zr34     Zr     0.545180000000     0.021390000000     0.614700000000     1.37624    
Zr35     Zr     0.552730000000     0.138890000000     0.544970000000     1.37572    
Zr36     Zr     0.489900000000     0.953660000000     0.508020000000     1.37617    
Zr37     Zr     0.521560000000     0.486940000000     0.125430000000     1.37883    
Zr38     Zr     0.434750000000     0.464910000000     0.013850000000     1.37638    
Zr39     Zr     0.647960000000     0.572360000000     0.057370000000     1.37066    
Zr40     Zr     0.561040000000     0.549960000000     0.945540000000     1.37744    
Zr41     Zr     0.548540000000     0.438820000000     0.026790000000     1.37591    
Zr42     Zr     0.534850000000     0.599210000000     0.043520000000     1.37741    
Zr43     Zr     0.511980000000     0.437900000000     0.586630000000     1.3768     
Zr44     Zr     0.420290000000     0.492720000000     0.532960000000     1.37559    
Zr45     Zr     0.633570000000     0.566320000000     0.542120000000     1.37533    
Zr46     Zr     0.540570000000     0.621140000000     0.487460000000     1.37598    
Zr47     Zr     0.518710000000     0.490340000000     0.464840000000     1.37494    
Zr48     Zr     0.535670000000     0.569590000000     0.609560000000     1.37393    


