data_structure

_audit_creation_method RASPA-1.0
_audit_creation_date 2023-6-4
_audit_author_name 'Poobodin Mano'

_cell_length_a    26.1786
_cell_length_b    28.632
_cell_length_c    29.165
_cell_angle_alpha 82.7363
_cell_angle_beta  96.3389
_cell_angle_gamma 119.439
_cell_volume      18855.6

_symmetry_cell_setting          triclinic
_symmetry_space_group_name_Hall 'P 1'
_symmetry_space_group_name_H-M  'P 1'
_symmetry_Int_Tables_number     1

_symmetry_equiv_pos_as_xyz 'x,y,z'

loop_
_atom_site_label
_atom_site_type_symbol
_atom_site_fract_x
_atom_site_fract_y
_atom_site_fract_z
_atom_site_charge
C1       C      0.179040000000     0.142300000000     0.998430000000     0.392243   
C2       C      0.918810000000     0.945400000000     0.816730000000     0.395314   
C3       C      0.004630000000     0.153310000000     0.962230000000     0.405364   
C4       C      0.100570000000     0.924090000000     0.889570000000     0.413595   
C5       C      0.995060000000     0.812440000000     0.982050000000     0.398099   
C6       C      0.905820000000     0.028150000000     0.072980000000     0.385407   
C7       C      0.821530000000     0.829310000000     0.948180000000     0.385289   
C8       C      0.067200000000     0.014260000000     0.132470000000     0.391197   
C9       C      0.031980000000     0.850410000000     0.426030000000     0.391105   
C10      C      0.779850000000     0.946940000000     0.420150000000     0.375613   
C11      C      0.031470000000     0.996600000000     0.316540000000     0.401398   
C12      C      0.792730000000     0.822420000000     0.534640000000     0.393193   
C13      C      0.912530000000     0.940270000000     0.628920000000     0.401219   
C14      C      0.156490000000     0.122300000000     0.417030000000     0.383729   
C15      C      0.919400000000     0.090590000000     0.527580000000     0.397783   
C16      C      0.165640000000     0.000240000000     0.528800000000     0.386483   
C17      C      0.066330000000     0.350260000000     0.964660000000     0.393038   
C18      C      0.838750000000     0.460180000000     0.042350000000     0.393643   
C19      C      0.869040000000     0.311430000000     0.903440000000     0.401469   
C20      C      0.043390000000     0.486860000000     0.137560000000     0.401648   
C21      C      0.118310000000     0.658610000000     0.022580000000     0.382851   
C22      C      0.970710000000     0.480160000000     0.806480000000     0.39751    
C23      C      0.940430000000     0.610270000000     0.980540000000     0.406997   
C24      C      0.144080000000     0.507620000000     0.878690000000     0.375907   
C25      C      0.962730000000     0.290890000000     0.509810000000     0.391615   
C26      C      0.821200000000     0.501400000000     0.475090000000     0.386488   
C27      C      0.839870000000     0.303050000000     0.418300000000     0.38584    
C28      C      0.932210000000     0.477080000000     0.625760000000     0.396671   
C29      C      0.118200000000     0.632730000000     0.534470000000     0.388683   
C30      C      0.999020000000     0.451460000000     0.315680000000     0.386615   
C31      C      0.994590000000     0.646760000000     0.438880000000     0.38607    
C32      C      0.129780000000     0.439490000000     0.447810000000     0.385399   
C33      C      0.311190000000     0.965480000000     0.925130000000     0.382948   
C34      C      0.552300000000     0.860360000000     0.946580000000     0.405047   
C35      C      0.309380000000     0.853730000000     0.026470000000     0.397491   
C36      C      0.565390000000     0.011220000000     0.827950000000     0.407523   
C37      C      0.682420000000     0.126080000000     0.912620000000     0.382266   
C38      C      0.441400000000     0.971930000000     0.136550000000     0.39756    
C39      C      0.689480000000     0.003790000000     0.041410000000     0.395453   
C40      C      0.457400000000     0.125620000000     0.017050000000     0.405988   
C41      C      0.501490000000     0.155300000000     0.474650000000     0.429112   
C42      C      0.285060000000     0.814230000000     0.461890000000     0.390698   
C43      C      0.371720000000     0.036030000000     0.567450000000     0.411027   
C44      C      0.408940000000     0.949990000000     0.323410000000     0.400966   
C45      C      0.558640000000     0.923930000000     0.386790000000     0.378269   
C46      C      0.540490000000     0.002680000000     0.642860000000     0.388352   
C47      C      0.444470000000     0.794590000000     0.495400000000     0.397406   
C48      C      0.651030000000     0.126630000000     0.506970000000     0.386246   
C49      C      0.499340000000     0.327940000000     0.022890000000     0.38693    
C50      C      0.341760000000     0.523640000000     0.982190000000     0.399177   
C51      C      0.368640000000     0.329720000000     0.928990000000     0.399569   
C52      C      0.489540000000     0.532240000000     0.127820000000     0.408405   
C53      C      0.632810000000     0.661080000000     0.033010000000     0.379713   
C54      C      0.540850000000     0.478240000000     0.824970000000     0.397548   
C55      C      0.499510000000     0.665820000000     0.926070000000     0.407401   
C56      C      0.665450000000     0.469620000000     0.960670000000     0.402056   
C57      C      0.543010000000     0.356640000000     0.464510000000     0.401078   
C58      C      0.307430000000     0.446340000000     0.550240000000     0.391241   
C59      C      0.365070000000     0.311100000000     0.417370000000     0.375764   
C60      C      0.497460000000     0.470330000000     0.644380000000     0.40159    
C61      C      0.599340000000     0.634650000000     0.558490000000     0.37006    
C62      C      0.459770000000     0.497760000000     0.311340000000     0.395078   
C63      C      0.398770000000     0.600290000000     0.492500000000     0.398884   
C64      C      0.642940000000     0.519730000000     0.397940000000     0.390865   
C65      C      0.575750000000     0.526020000000     0.748940000000    -0.0115074  
C66      C      0.541460000000     0.428210000000     0.761380000000    -0.0337612  
C67      C      0.524420000000     0.517670000000     0.714600000000    -0.00977435 
C68      C      0.492540000000     0.418160000000     0.722220000000     0.0884718  
C69      C      0.487560000000     0.481010000000     0.239610000000    -0.0137433  
C70      C      0.431500000000     0.532410000000     0.235320000000    -0.0369097  
C71      C      0.529730000000     0.524210000000     0.206370000000    -0.00661107 
C72      C      0.468580000000     0.569650000000     0.193830000000     0.0914223  
C73      C      0.428460000000     0.718670000000     0.452880000000    -0.0147044  
C74      C      0.435070000000     0.711340000000     0.540560000000    -0.0358256  
C75      C      0.370980000000     0.665650000000     0.453680000000    -0.00939564 
C76      C      0.377780000000     0.656640000000     0.538870000000     0.0894984  
C77      C      0.554940000000     0.293690000000     0.421180000000    -0.0141204  
C78      C      0.578390000000     0.297070000000     0.505410000000    -0.0363266  
C79      C      0.505770000000     0.235070000000     0.428040000000    -0.00428787 
C80      C      0.527590000000     0.240150000000     0.514570000000     0.100721   
C81      C      0.544710000000     0.046790000000     0.711240000000    -0.0158511  
C82      C      0.565250000000     0.968090000000     0.718950000000    -0.0376008  
C83      C      0.584990000000     0.067350000000     0.754430000000    -0.00773088 
C84      C      0.606300000000     0.991300000000     0.761920000000     0.0899819  
C85      C      0.440450000000     0.926670000000     0.213820000000    -0.00816023 
C86      C      0.378470000000     0.973220000000     0.193710000000    -0.0316946  
C87      C      0.401860000000     0.903090000000     0.255400000000    -0.00842341 
C88      C      0.390800000000     0.987260000000     0.245200000000     0.0941118  
C89      C      0.582660000000     0.807560000000     0.904440000000    -0.0184335  
C90      C      0.528060000000     0.770050000000     0.977190000000    -0.0339006  
C91      C      0.534520000000     0.755630000000     0.881090000000    -0.0158425  
C92      C      0.474140000000     0.732190000000     0.948680000000     0.100502   
C93      C      0.521220000000     0.259600000000     0.001380000000    -0.0100005  
C94      C      0.464290000000     0.238840000000     0.071460000000    -0.0356504  
C95      C      0.471170000000     0.211360000000     0.980060000000    -0.00555064 
C96      C      0.423100000000     0.179490000000     0.055880000000     0.0891187  
C97      C      0.802580000000     0.234680000000     0.483010000000    -0.0102096  
C98      C      0.733900000000     0.250320000000     0.423920000000    -0.0297462  
C99      C      0.754310000000     0.177090000000     0.493200000000    -0.0101815  
C100     C      0.682720000000     0.195060000000     0.441560000000     0.0815718  
C101     C      0.245150000000     0.717700000000     0.486330000000    -0.00878232 
C102     C      0.177020000000     0.756580000000     0.468470000000    -0.0305691  
C103     C      0.223510000000     0.700120000000     0.535630000000    -0.00795218 
C104     C      0.146220000000     0.728440000000     0.514710000000     0.0839567  
C105     C      0.783090000000     0.563990000000     0.441800000000    -0.0143931  
C106     C      0.723900000000     0.463090000000     0.432790000000    -0.0244061  
C107     C      0.751660000000     0.572270000000     0.395740000000    -0.00241277 
C108     C      0.698200000000     0.474650000000     0.384960000000     0.0858563  
C109     C      0.252920000000     0.494450000000     0.527020000000    -0.0194626  
C110     C      0.198100000000     0.397120000000     0.550000000000    -0.0352694  
C111     C      0.234030000000     0.484380000000     0.476180000000    -0.00274303 
C112     C      0.166830000000     0.385540000000     0.500520000000     0.0886873  
C113     C      0.976220000000     0.532550000000     0.730340000000    -0.0180926  
C114     C      0.944390000000     0.432900000000     0.735270000000    -0.0369373  
C115     C      0.929020000000     0.523980000000     0.690570000000    -0.0124968  
C116     C      0.892330000000     0.426000000000     0.701620000000     0.0921755  
C117     C      0.014940000000     0.414840000000     0.247830000000    -0.0104849  
C118     C      0.989230000000     0.489260000000     0.236510000000    -0.0386599  
C119     C      0.065210000000     0.448570000000     0.214020000000    -0.0176709  
C120     C      0.046090000000     0.525140000000     0.212390000000     0.0950387  
C121     C      0.786680000000     0.167770000000     0.890930000000    -0.0141195  
C122     C      0.721620000000     0.206690000000     0.857300000000    -0.0369857  
C123     C      0.835910000000     0.223530000000     0.871220000000    -0.0115411  
C124     C      0.766660000000     0.262320000000     0.872440000000     0.0892176  
C125     C      0.163030000000     0.750820000000     0.985380000000    -0.0120634  
C126     C      0.160330000000     0.738730000000     0.070530000000    -0.0356332  
C127     C      0.228930000000     0.783540000000     0.987250000000    -0.00931864 
C128     C      0.226720000000     0.784600000000     0.074110000000     0.084372   
C129     C      0.730050000000     0.416880000000     0.038030000000    -0.0112847  
C130     C      0.791330000000     0.515190000000     0.020900000000    -0.0363093  
C131     C      0.707230000000     0.410040000000     0.986520000000    -0.0130202  
C132     C      0.773350000000     0.508010000000     0.968470000000     0.0940949  
C133     C      0.213250000000     0.472630000000     0.901000000000    -0.0250223  
C134     C      0.248620000000     0.572170000000     0.897990000000    -0.0226808  
C135     C      0.239670000000     0.475920000000     0.950320000000     0.00674674 
C136     C      0.305660000000     0.575690000000     0.925830000000     0.0870844  
C137     C      0.635490000000     0.732370000000     0.561890000000    -0.0159284  
C138     C      0.693990000000     0.688360000000     0.600410000000    -0.0370533  
C139     C      0.695180000000     0.784800000000     0.568840000000    -0.0118912  
C140     C      0.750170000000     0.731150000000     0.576600000000     0.0881415  
C141     C      0.314800000000     0.213640000000     0.419690000000    -0.0186512  
C142     C      0.262930000000     0.267000000000     0.393900000000    -0.0380422  
C143     C      0.262140000000     0.163730000000     0.398940000000    -0.0106813  
C144     C      0.210310000000     0.215530000000     0.374730000000     0.0912935  
C145     C      0.707960000000     0.948600000000     0.358470000000    -0.0176827  
C146     C      0.674570000000     0.889660000000     0.433800000000    -0.0321471  
C147     C      0.657080000000     0.960310000000     0.359400000000    -0.00109909 
C148     C      0.610910000000     0.872020000000     0.411850000000     0.0895966  
C149     C      0.236100000000     0.993120000000     0.589190000000    -0.0134719  
C150     C      0.271190000000     0.055210000000     0.515070000000    -0.031599   
C151     C      0.296010000000     0.030090000000     0.613340000000    -0.00906834 
C152     C      0.326770000000     0.092940000000     0.544180000000     0.0894874  
C153     C      0.062580000000     0.793020000000     0.390790000000    -0.0144584  
C154     C      0.040270000000     0.779560000000     0.473660000000    -0.0290572  
C155     C      0.019650000000     0.731060000000     0.386750000000    -0.0171998  
C156     C      0.986720000000     0.725220000000     0.465250000000     0.0857722  
C157     C      0.878200000000     0.147530000000     0.497720000000    -0.0097322  
C158     C      0.927050000000     0.157810000000     0.576820000000    -0.0316513  
C159     C      0.927240000000     0.202600000000     0.480680000000    -0.0130903  
C160     C      0.971960000000     0.217480000000     0.561990000000     0.0868435  
C161     C      0.918770000000     0.899730000000     0.706970000000    -0.010172   
C162     C      0.860480000000     0.950080000000     0.690620000000    -0.0276112  
C163     C      0.890710000000     0.885490000000     0.753480000000    -0.00819967 
C164     C      0.884560000000     0.971950000000     0.739470000000     0.0895474  
C165     C      0.098950000000     0.989610000000     0.211730000000    -0.0136118  
C166     C      0.077150000000     0.065470000000     0.198670000000    -0.0366621  
C167     C      0.062140000000     0.967360000000     0.254820000000    -0.0116801  
C168     C      0.033780000000     0.041370000000     0.237870000000     0.0950881  
C169     C      0.776620000000     0.736350000000     0.985130000000    -0.00902606 
C170     C      0.713480000000     0.777300000000     0.950590000000    -0.0289406  
C171     C      0.741600000000     0.717040000000     0.029110000000    -0.0151034  
C172     C      0.674190000000     0.753280000000     0.992940000000     0.0868184  
C173     C      0.285760000000     0.193350000000     0.992790000000    -0.0132694  
C174     C      0.224280000000     0.240550000000     0.982050000000    -0.0360552  
C175     C      0.336780000000     0.250970000000     0.985900000000    -0.00378399 
C176     C      0.261630000000     0.273390000000     0.940260000000     0.0931002  
C177     C      0.853170000000     0.079940000000     0.055560000000    -0.0199704  
C178     C      0.817280000000     0.000350000000     0.114810000000    -0.0374647  
C179     C      0.794100000000     0.050970000000     0.027900000000    -0.0112623  
C180     C      0.760240000000     0.004910000000     0.108380000000     0.0855547  
C181     C      0.206850000000     0.915460000000     0.944150000000    -0.012702   
C182     C      0.236920000000     0.966450000000     0.865030000000    -0.0354091  
C183     C      0.149360000000     0.873800000000     0.920450000000    -0.0116303  
C184     C      0.175950000000     0.924510000000     0.844690000000     0.0913002  
C185     C      0.936040000000     0.676800000000     0.024410000000    -0.00819838 
C186     C      0.924720000000     0.682890000000     0.938360000000    -0.0283288  
C187     C      0.993000000000     0.730690000000     0.023820000000    -0.0112466  
C188     C      0.979330000000     0.739190000000     0.935820000000     0.0872063  
C189     C      0.073550000000     0.285670000000     0.920560000000    -0.0142487  
C190     C      0.076380000000     0.275530000000     0.006260000000    -0.0365207  
C191     C      0.012320000000     0.235510000000     0.918040000000    -0.00922474 
C192     C      0.013160000000     0.228260000000     0.004530000000     0.0952721  
H1       H      0.033630000000     0.999920000000     0.860920000000     0.207947   
H2       H      0.920150000000     0.042490000000     0.980300000000     0.194959   
H3       H      0.921340000000     0.851970000000     0.011150000000     0.206353   
H4       H      0.125820000000     0.031900000000     0.041110000000     0.204164   
H5       H      0.850990000000     0.021750000000     0.900710000000     0.131465   
H6       H      0.779950000000     0.941440000000     0.974990000000     0.213488   
H7       H      0.873060000000     0.869640000000     0.093030000000     0.144245   
H8       H      0.948740000000     0.828660000000     0.103980000000     0.196298   
H9       H      0.139200000000     0.921180000000     0.037400000000     0.146098   
H10      H      0.233190000000     0.043070000000     0.960660000000     0.204254   
H11      H      0.135830000000     0.125750000000     0.879440000000     0.159774   
H12      H      0.030410000000     0.093670000000     0.811950000000     0.224148   
H13      H      0.012200000000     0.855570000000     0.135890000000     0.20906    
H14      H      0.236550000000     0.080890000000     0.911230000000     0.213714   
H15      H      0.032480000000     0.142840000000     0.838910000000     0.216568   
H16      H      0.777110000000     0.928180000000     0.032380000000     0.23262    
H17      H      0.832520000000     0.888010000000     0.437840000000     0.203458   
H18      H      0.038250000000     0.062800000000     0.384790000000     0.206547   
H19      H      0.982520000000     0.034670000000     0.564090000000     0.200982   
H20      H      0.037590000000     0.894650000000     0.505120000000     0.195589   
H21      H      0.957700000000     0.079790000000     0.331550000000     0.149283   
H22      H      0.995260000000     0.143260000000     0.395660000000     0.206406   
H23      H      0.128320000000     0.131410000000     0.536240000000     0.142159   
H24      H      0.088070000000     0.059340000000     0.613990000000     0.203048   
H25      H      0.990600000000     0.854450000000     0.597790000000     0.143742   
H26      H      0.938250000000     0.779370000000     0.535260000000     0.211108   
H27      H      0.874300000000     0.813760000000     0.383880000000     0.143692   
H28      H      0.832220000000     0.880770000000     0.338120000000     0.202674   
H29      H      0.087940000000     0.008230000000     0.649000000000     0.220799   
H30      H      0.879510000000     0.743340000000     0.500740000000     0.221863   
H31      H      0.865710000000     0.928780000000     0.295900000000     0.211508   
H32      H      0.036970000000     0.188020000000     0.433910000000     0.229824   
H33      H      0.948950000000     0.423210000000     0.079010000000     0.196613   
H34      H      0.892750000000     0.416820000000     0.891060000000     0.212791   
H35      H      0.039150000000     0.608960000000     0.955840000000     0.215662   
H36      H      0.117470000000     0.465070000000     0.963280000000     0.200888   
H37      H      0.769810000000     0.341090000000     0.959290000000     0.14941    
H38      H      0.822200000000     0.457160000000     0.892000000000     0.201227   
H39      H      0.019800000000     0.630380000000     0.858660000000     0.146502   
H40      H      0.172760000000     0.659670000000     0.887290000000     0.202284   
H41      H      0.223880000000     0.600130000000     0.008050000000     0.150167   
H42      H      0.166960000000     0.434320000000     0.058710000000     0.208654   
H43      H      0.994750000000     0.318830000000     0.072960000000     0.152487   
H44      H      0.876250000000     0.324860000000     0.081680000000     0.197433   
H45      H      0.221710000000     0.669500000000     0.932090000000     0.200356   
H46      H      0.172490000000     0.486980000000     0.082410000000     0.219305   
H47      H      0.888640000000     0.293670000000     0.042970000000     0.202699   
H48      H      0.841050000000     0.508850000000     0.851450000000     0.21993    
H49      H      0.872770000000     0.433000000000     0.546050000000     0.205273   
H50      H      0.911260000000     0.428800000000     0.369680000000     0.194482   
H51      H      0.068350000000     0.598280000000     0.458250000000     0.196842   
H52      H      0.055650000000     0.403950000000     0.516510000000     0.207554   
H53      H      0.814800000000     0.422230000000     0.358860000000     0.14641    
H54      H      0.898560000000     0.515660000000     0.317400000000     0.202336   
H55      H      0.114370000000     0.610660000000     0.376800000000     0.127772   
H56      H      0.212880000000     0.595580000000     0.457290000000     0.194539   
H57      H      0.143300000000     0.510330000000     0.587720000000     0.149923   
H58      H      0.047380000000     0.376440000000     0.616010000000     0.219706   
H59      H      0.845660000000     0.328060000000     0.585810000000     0.139157   
H60      H      0.781670000000     0.326600000000     0.522550000000     0.19984    
H61      H      0.226730000000     0.586380000000     0.514040000000     0.203977   
H62      H      0.038800000000     0.420240000000     0.642900000000     0.213761   
H63      H      0.736730000000     0.343640000000     0.488760000000     0.21621    
H64      H      0.931670000000     0.581610000000     0.323970000000     0.213193   
H65      H      0.488580000000     0.918000000000     0.895300000000     0.197725   
H66      H      0.432030000000     0.906550000000     0.071570000000     0.207592   
H67      H      0.645140000000     0.069960000000     0.014780000000     0.201136   
H68      H      0.444820000000     0.072090000000     0.941650000000     0.190742   
H69      H      0.468670000000     0.820030000000     0.059040000000     0.143765   
H70      H      0.559060000000     0.885700000000     0.106700000000     0.21809    
H71      H      0.593310000000     0.074730000000     0.125310000000     0.148371   
H72      H      0.677780000000     0.171950000000     0.028440000000     0.201656   
H73      H      0.557580000000     0.177630000000     0.906160000000     0.130374   
H74      H      0.413190000000     0.065820000000     0.827520000000     0.207449   
H75      H      0.372690000000     0.898060000000     0.854150000000     0.136948   
H76      H      0.399590000000     0.821480000000     0.899070000000     0.195771   
H77      H      0.624280000000     0.160790000000     0.061970000000     0.206339   
H78      H      0.483540000000     0.106180000000     0.843650000000     0.193763   
H79      H      0.347400000000     0.787210000000     0.937020000000     0.210546   
H80      H      0.543760000000     0.906910000000     0.151580000000     0.218      
H81      H      0.346390000000     0.932010000000     0.412800000000     0.196312   
H82      H      0.429570000000     0.957300000000     0.593600000000     0.199697   
H83      H      0.537940000000     0.900770000000     0.480760000000     0.202743   
H84      H      0.559420000000     0.099100000000     0.446980000000     0.213322   
H85      H      0.308640000000     0.889080000000     0.600670000000     0.149323   
H86      H      0.393970000000     0.813090000000     0.609810000000     0.216778   
H87      H      0.605020000000     0.930200000000     0.589130000000     0.141542   
H88      H      0.645210000000     0.954340000000     0.506890000000     0.194013   
H89      H      0.694320000000     0.078420000000     0.418080000000     0.139838   
H90      H      0.534570000000     0.112750000000     0.342380000000     0.216695   
H91      H      0.369750000000     0.079560000000     0.379510000000     0.152097   
H92      H      0.252450000000     0.942020000000     0.465220000000     0.204319   
H93      H      0.689070000000     0.996340000000     0.465620000000     0.201466   
H94      H      0.476250000000     0.122620000000     0.331960000000     0.217011   
H95      H      0.229050000000     0.904920000000     0.515240000000     0.214418   
H96      H      0.438380000000     0.853920000000     0.649980000000     0.209502   
H97      H      0.403060000000     0.466610000000     0.053450000000     0.209484   
H98      H      0.434570000000     0.448040000000     0.874990000000     0.201763   
H99      H      0.584730000000     0.632200000000     0.950550000000     0.19786    
H100     H      0.590060000000     0.447920000000     0.022290000000     0.195346   
H101     H      0.275370000000     0.401190000000     0.901730000000     0.146841   
H102     H      0.437610000000     0.574880000000     0.808200000000     0.222135   
H103     H      0.616350000000     0.625880000000     0.842420000000     0.143431   
H104     H      0.671710000000     0.653000000000     0.919000000000     0.187322   
H105     H      0.701930000000     0.562070000000     0.066310000000     0.133927   
H106     H      0.603880000000     0.452770000000     0.114770000000     0.187229   
H107     H      0.391700000000     0.341900000000     0.091710000000     0.140242   
H108     H      0.317920000000     0.349910000000     0.031350000000     0.195071   
H109     H      0.707960000000     0.619200000000     0.916020000000     0.218386   
H110     H      0.548450000000     0.409020000000     0.147500000000     0.205905   
H111     H      0.266840000000     0.362910000000     0.002360000000     0.197993   
H112     H      0.399350000000     0.510110000000     0.827760000000     0.211737   
H113     H      0.410760000000     0.414740000000     0.576930000000     0.198197   
H114     H      0.377700000000     0.427870000000     0.387640000000     0.200312   
H115     H      0.513910000000     0.614580000000     0.472670000000     0.207951   
H116     H      0.595140000000     0.471360000000     0.475090000000     0.19849    
H117     H      0.284170000000     0.415230000000     0.420860000000     0.144823   
H118     H      0.317010000000     0.532180000000     0.382040000000     0.207279   
H119     H      0.508890000000     0.629100000000     0.354630000000     0.146864   
H120     H      0.615290000000     0.683100000000     0.445090000000     0.200191   
H121     H      0.705380000000     0.655790000000     0.474890000000     0.148036   
H122     H      0.616270000000     0.423840000000     0.603730000000     0.220252   
H123     H      0.430580000000     0.319310000000     0.572700000000     0.140585   
H124     H      0.261000000000     0.285990000000     0.511510000000     0.225465   
H125     H      0.611020000000     0.657660000000     0.395330000000     0.203844   
H126     H      0.646140000000     0.480180000000     0.568190000000     0.199488   
H127     H      0.305010000000     0.305380000000     0.559340000000     0.204592   
H128     H      0.321900000000     0.489510000000     0.350830000000     0.203008   
H129     H      0.487070000000     0.513550000000     0.732790000000     0.0469532  
H130     H      0.591870000000     0.563810000000     0.765970000000     0.0464945  
H131     H      0.452140000000     0.407920000000     0.739790000000     0.0359297  
H132     H      0.526330000000     0.392930000000     0.787490000000     0.0672751  
H133     H      0.539420000000     0.554150000000     0.689720000000     0.0477222  
H134     H      0.613140000000     0.531270000000     0.730030000000     0.045444   
H135     H      0.581740000000     0.433180000000     0.747260000000     0.0666156  
H136     H      0.563740000000     0.558210000000     0.225850000000     0.0425478  
H137     H      0.512890000000     0.465030000000     0.263030000000     0.0483653  
H138     H      0.505000000000     0.606580000000     0.208440000000     0.0377837  
H139     H      0.422850000000     0.557500000000     0.256110000000     0.0656374  
H140     H      0.553890000000     0.508480000000     0.189850000000     0.0437886  
H141     H      0.452580000000     0.447280000000     0.220460000000     0.0513934  
H142     H      0.388140000000     0.500670000000     0.222480000000     0.0654325  
H143     H      0.333500000000     0.673400000000     0.454950000000     0.0331862  
H144     H      0.427400000000     0.744070000000     0.421100000000     0.0594174  
H145     H      0.341030000000     0.666400000000     0.535640000000     0.026467   
H146     H      0.435380000000     0.731220000000     0.571040000000     0.065264   
H147     H      0.363250000000     0.645720000000     0.421360000000     0.0424528  
H148     H      0.465490000000     0.710760000000     0.450040000000     0.0557666  
H149     H      0.474180000000     0.705240000000     0.544440000000     0.0651439  
H150     H      0.462830000000     0.234350000000     0.427030000000     0.0500594  
H151     H      0.544340000000     0.313850000000     0.389400000000     0.0517134  
H152     H      0.488380000000     0.244650000000     0.518310000000     0.051748   
H153     H      0.587500000000     0.320630000000     0.535680000000     0.0631042  
H154     H      0.505100000000     0.214450000000     0.397980000000     0.0523459  
H155     H      0.596620000000     0.294500000000     0.415420000000     0.0618807  
H156     H      0.619930000000     0.297030000000     0.501680000000     0.0671941  
H157     H      0.630300000000     0.096070000000     0.743770000000     0.0468005  
H158     H      0.551420000000     0.082630000000     0.687400000000     0.0545491  
H159     H      0.650750000000     0.019750000000     0.749180000000     0.0385472  
H160     H      0.585330000000     0.950650000000     0.699600000000     0.0578861  
H161     H      0.570790000000     0.090630000000     0.772580000000     0.0433946  
H162     H      0.498240000000     0.025450000000     0.721030000000     0.0480864  
H163     H      0.521730000000     0.935100000000     0.729860000000     0.0594275  
H164     H      0.356460000000     0.873220000000     0.244220000000     0.0468759  
H165     H      0.437900000000     0.892700000000     0.197050000000     0.0402956  
H166     H      0.350630000000     0.986220000000     0.255800000000     0.0314561  
H167     H      0.333600000000     0.938440000000     0.189470000000     0.0612501  
H168     H      0.420310000000     0.881410000000     0.279930000000     0.0496688  
H169     H      0.486850000000     0.952350000000     0.226100000000     0.0608387  
H170     H      0.379190000000     0.007660000000     0.170790000000     0.0806643  
H171     H      0.506080000000     0.766930000000     0.856450000000     0.0502875  
H172     H      0.597530000000     0.842840000000     0.878310000000     0.0582185  
H173     H      0.455660000000     0.756520000000     0.927740000000     0.0429534  
H174     H      0.516100000000     0.780410000000     0.008450000000     0.0729456  
H175     H      0.556320000000     0.741100000000     0.860390000000     0.0489489  
H176     H      0.621130000000     0.801920000000     0.915590000000     0.0471533  
H177     H      0.554950000000     0.750650000000     0.990630000000     0.076056   
H178     H      0.436840000000     0.221030000000     0.963870000000     0.0416716  
H179     H      0.546370000000     0.290340000000     0.973570000000     0.050777   
H180     H      0.381080000000     0.177550000000     0.042080000000     0.0261048  
H181     H      0.436740000000     0.251480000000     0.087300000000     0.0564963  
H182     H      0.486550000000     0.200370000000     0.951160000000     0.0407643  
H183     H      0.552710000000     0.248180000000     0.021450000000     0.0513459  
H184     H      0.497800000000     0.239290000000     0.098550000000     0.0662902  
H185     H      0.756890000000     0.150890000000     0.469460000000     0.0373137  
H186     H      0.844830000000     0.234680000000     0.486180000000     0.0489419  
H187     H      0.675560000000     0.166600000000     0.415950000000     0.0303674  
H188     H      0.728290000000     0.254550000000     0.385470000000     0.0610137  
H189     H      0.762410000000     0.163540000000     0.529450000000     0.0444745  
H190     H      0.804070000000     0.259730000000     0.509760000000     0.0407244  
H191     H      0.730430000000     0.283430000000     0.436380000000     0.0673644  
H192     H      0.231330000000     0.666440000000     0.550930000000     0.0453594  
H193     H      0.219140000000     0.684330000000     0.463670000000     0.0338306  
H194     H      0.098740000000     0.709760000000     0.504540000000     0.0442623  
H195     H      0.150290000000     0.730760000000     0.440130000000     0.0366227  
H196     H      0.250620000000     0.733190000000     0.558220000000     0.0620034  
H197     H      0.291870000000     0.727250000000     0.487200000000     0.0422621  
H198     H      0.176140000000     0.795130000000     0.459820000000     0.0543076  
H199     H      0.746540000000     0.608520000000     0.396260000000     0.0469039  
H200     H      0.762740000000     0.568710000000     0.471120000000     0.054129   
H201     H      0.653420000000     0.439490000000     0.380500000000     0.0421213  
H202     H      0.690770000000     0.451190000000     0.458890000000     0.0380277  
H203     H      0.780430000000     0.582160000000     0.366790000000     0.0534235  
H204     H      0.829670000000     0.596270000000     0.441720000000     0.0592926  
H205     H      0.729110000000     0.427310000000     0.430770000000     0.0608202  
H206     H      0.235450000000     0.520820000000     0.456780000000     0.0357729  
H207     H      0.220980000000     0.500540000000     0.543520000000     0.0455592  
H208     H      0.119170000000     0.358720000000     0.506280000000     0.0357868  
H209     H      0.169190000000     0.402070000000     0.571940000000     0.0500124  
H210     H      0.266230000000     0.477470000000     0.460390000000     0.0372428  
H211     H      0.295250000000     0.531860000000     0.530160000000     0.0585102  
H212     H      0.202450000000     0.362210000000     0.567210000000     0.0685273  
H213     H      0.889140000000     0.519670000000     0.704920000000     0.0479309  
H214     H      0.979870000000     0.564130000000     0.751130000000     0.0541671  
H215     H      0.857900000000     0.424430000000     0.722260000000     0.0481304  
H216     H      0.930460000000     0.396490000000     0.760040000000     0.0749142  
H217     H      0.945380000000     0.560230000000     0.665500000000     0.0528849  
H218     H      0.019350000000     0.548380000000     0.715070000000     0.0487419  
H219     H      0.981260000000     0.437370000000     0.716190000000     0.0576509  
H220     H      0.107460000000     0.469010000000     0.234740000000     0.047742   
H221     H      0.029280000000     0.391810000000     0.274660000000     0.0494259  
H222     H      0.081990000000     0.539240000000     0.240170000000     0.0401428  
H223     H      0.975880000000     0.514020000000     0.253340000000     0.061094   
H224     H      0.069320000000     0.420630000000     0.193400000000     0.0548175  
H225     H      0.975710000000     0.385330000000     0.228220000000     0.0409209  
H226     H      0.952970000000     0.467440000000     0.210640000000     0.0552651  
H227     H      0.879340000000     0.229060000000     0.885940000000     0.041138   
H228     H      0.799220000000     0.160840000000     0.927830000000     0.0394691  
H229     H      0.750760000000     0.265800000000     0.905110000000     0.0439754  
H230     H      0.676640000000     0.201670000000     0.856880000000     0.0592031  
H231     H      0.835620000000     0.223770000000     0.833050000000     0.0562822  
H232     H      0.783980000000     0.135420000000     0.871710000000     0.0504523  
H233     H      0.728430000000     0.203070000000     0.821200000000     0.0634622  
H234     H      0.247650000000     0.755990000000     0.987330000000     0.0449968  
H235     H      0.148130000000     0.730210000000     0.952820000000     0.0506899  
H236     H      0.252100000000     0.763600000000     0.088310000000     0.0377883  
H237     H      0.152070000000     0.708220000000     0.100520000000     0.0638687  
H238     H      0.241590000000     0.811520000000     0.955210000000     0.0355274  
H239     H      0.143720000000     0.777990000000     0.984180000000     0.0508321  
H240     H      0.130820000000     0.755940000000     0.072680000000     0.0620896  
H241     H      0.733730000000     0.398470000000     0.968260000000     0.0424122  
H242     H      0.730330000000     0.379710000000     0.054290000000     0.0468398  
H243     H      0.804030000000     0.497090000000     0.955020000000     0.0342299  
H244     H      0.835460000000     0.550440000000     0.026150000000     0.0706972  
H245     H      0.660980000000     0.376970000000     0.984360000000     0.0434437  
H246     H      0.698860000000     0.422060000000     0.057080000000     0.0312634  
H247     H      0.760100000000     0.522390000000     0.037680000000     0.0642756  
H248     H      0.209560000000     0.475350000000     0.974550000000     0.0300912  
H249     H      0.173640000000     0.432480000000     0.898500000000     0.0476554  
H250     H      0.319390000000     0.606990000000     0.950380000000     0.0524066  
H251     H      0.232270000000     0.591860000000     0.918000000000     0.0348295  
H252     H      0.243140000000     0.438740000000     0.959740000000     0.0270734  
H253     H      0.243740000000     0.475470000000     0.876050000000     0.0715398  
H254     H      0.259600000000     0.596390000000     0.864090000000     0.0654972  
H255     H      0.692300000000     0.818430000000     0.547220000000     0.0442614  
H256     H      0.620080000000     0.733320000000     0.524840000000     0.034718   
H257     H      0.755680000000     0.712150000000     0.547790000000     0.0390361  
H258     H      0.694460000000     0.649370000000     0.606020000000     0.0590991  
H259     H      0.701490000000     0.794130000000     0.605560000000     0.0522695  
H260     H      0.602280000000     0.731650000000     0.583050000000     0.0464281  
H261     H      0.694080000000     0.699840000000     0.635500000000     0.0599894  
H262     H      0.270080000000     0.162320000000     0.362580000000     0.0469745  
H263     H      0.355970000000     0.213210000000     0.414380000000     0.0494603  
H264     H      0.219980000000     0.215430000000     0.338420000000     0.0420755  
H265     H      0.268350000000     0.302470000000     0.370000000000     0.0643451  
H266     H      0.259450000000     0.126980000000     0.418880000000     0.0491941  
H267     H      0.309540000000     0.209450000000     0.457570000000     0.0604824  
H268     H      0.252260000000     0.272080000000     0.428160000000     0.0685011  
H269     H      0.674150000000     0.997700000000     0.377200000000     0.0370598  
H270     H      0.745990000000     0.986550000000     0.345090000000     0.0499086  
H271     H      0.583620000000     0.860640000000     0.442340000000     0.0233607  
H272     H      0.678690000000     0.905450000000     0.467630000000     0.0439626  
H273     H      0.643080000000     0.968220000000     0.323180000000     0.0482833  
H274     H      0.697710000000     0.918270000000     0.333900000000     0.064011   
H275     H      0.680760000000     0.853660000000     0.441770000000     0.0584915  
H276     H      0.291300000000     0.059210000000     0.632010000000     0.0469771  
H277     H      0.201960000000     0.981300000000     0.614330000000     0.0526526  
H278     H      0.314430000000     0.117810000000     0.562290000000     0.0402638  
H279     H      0.257860000000     0.081080000000     0.490940000000     0.0593942  
H280     H      0.308820000000     0.005780000000     0.640070000000     0.0388976  
H281     H      0.235340000000     0.955620000000     0.581990000000     0.0465342  
H282     H      0.280650000000     0.030690000000     0.494300000000     0.0654829  
H283     H      0.979240000000     0.726240000000     0.366180000000     0.037931   
H284     H      0.059520000000     0.815950000000     0.357820000000     0.034461   
H285     H      0.951540000000     0.733110000000     0.447340000000     0.0395607  
H286     H      0.033440000000     0.798200000000     0.502110000000     0.0464645  
H287     H      0.041370000000     0.716040000000     0.366500000000     0.0436333  
H288     H      0.108320000000     0.799730000000     0.395340000000     0.0371128  
H289     H      0.079390000000     0.775410000000     0.484850000000     0.0574502  
H290     H      0.963110000000     0.198420000000     0.467980000000     0.0500104  
H291     H      0.859840000000     0.120550000000     0.468950000000     0.0360152  
H292     H      0.012260000000     0.217400000000     0.553120000000     0.0464318  
H293     H      0.948670000000     0.140040000000     0.602680000000     0.0633348  
H294     H      0.908580000000     0.218580000000     0.450730000000     0.0510718  
H295     H      0.842050000000     0.151620000000     0.509500000000     0.0393902  
H296     H      0.890120000000     0.155890000000     0.593900000000     0.0705872  
H297     H      0.842960000000     0.856670000000     0.749240000000     0.0461456  
H298     H      0.908910000000     0.861760000000     0.692650000000     0.0561742  
H299     H      0.848660000000     0.974460000000     0.754360000000     0.0386712  
H300     H      0.814750000000     0.916360000000     0.693160000000     0.0503315  
H301     H      0.911030000000     0.864630000000     0.776870000000     0.0510078  
H302     H      0.967230000000     0.924200000000     0.712770000000     0.0613059  
H303     H      0.858320000000     0.981990000000     0.665800000000     0.0669265  
H304     H      0.019870000000     0.931450000000     0.245780000000     0.037492   
H305     H      0.096670000000     0.955350000000     0.195740000000     0.0437602  
H306     H      0.989030000000     0.015680000000     0.222200000000     0.0341507  
H307     H      0.063010000000     0.089160000000     0.172490000000     0.0768687  
H308     H      0.086130000000     0.953580000000     0.282130000000     0.0443607  
H309     H      0.145760000000     0.015540000000     0.222850000000     0.0462024  
H310     H      0.122030000000     0.093780000000     0.212250000000     0.0690706  
H311     H      0.742320000000     0.680200000000     0.045130000000     0.0523518  
H312     H      0.760200000000     0.703610000000     0.962080000000     0.0434874  
H313     H      0.628740000000     0.736980000000     0.977180000000     0.0269153  
H314     H      0.691290000000     0.749990000000     0.922360000000     0.0316487  
H315     H      0.764880000000     0.747210000000     0.054920000000     0.0631128  
H316     H      0.823050000000     0.747260000000     0.995780000000     0.0383026  
H317     H      0.716070000000     0.816330000000     0.936730000000     0.0632234  
H318     H      0.346430000000     0.270930000000     0.018500000000     0.0319632  
H319     H      0.294240000000     0.173790000000     0.025830000000     0.0422597  
H320     H      0.260650000000     0.312000000000     0.937610000000     0.0192862  
H321     H      0.239990000000     0.264460000000     0.012590000000     0.0422584  
H322     H      0.376110000000     0.248670000000     0.979060000000     0.0453024  
H323     H      0.284640000000     0.170530000000     0.964210000000     0.0583993  
H324     H      0.178100000000     0.231750000000     0.973170000000     0.053038   
H325     H      0.785410000000     0.082560000000     0.008250000000     0.0361586  
H326     H      0.851820000000     0.107850000000     0.078050000000     0.0544077  
H327     H      0.768580000000     0.040130000000     0.126670000000     0.0403195  
H328     H      0.834650000000     0.006230000000     0.151380000000     0.0566676  
H329     H      0.797620000000     0.027210000000     0.002390000000     0.0379621  
H330     H      0.888190000000     0.104480000000     0.030900000000     0.0502891  
H331     H      0.805240000000     0.958500000000     0.108750000000     0.0628058  
H332     H      0.156250000000     0.841740000000     0.909080000000     0.0476408  
H333     H      0.221110000000     0.892990000000     0.971680000000     0.0525999  
H334     H      0.182120000000     0.891450000000     0.834390000000     0.039856   
H335     H      0.270170000000     0.976310000000     0.839590000000     0.0613759  
H336     H      0.114380000000     0.853900000000     0.945790000000     0.04667    
H337     H      0.198640000000     0.943480000000     0.961240000000     0.0430959  
H338     H      0.236860000000     0.004360000000     0.869460000000     0.0661143  
H339     H      0.996710000000     0.750470000000     0.055380000000     0.0429384  
H340     H      0.898340000000     0.684060000000     0.026430000000     0.0444179  
H341     H      0.966590000000     0.762070000000     0.907560000000     0.0482587  
H342     H      0.885380000000     0.688090000000     0.938720000000     0.0612129  
H343     H      0.031360000000     0.723810000000     0.025240000000     0.0605315  
H344     H      0.936250000000     0.650750000000     0.056010000000     0.0519111  
H345     H      0.918900000000     0.662560000000     0.906670000000     0.0819488  
H346     H      0.978200000000     0.248320000000     0.913500000000     0.0444341  
H347     H      0.079510000000     0.314150000000     0.889350000000     0.0489807  
H348     H      0.983220000000     0.246160000000     0.999670000000     0.0289282  
H349     H      0.086230000000     0.296560000000     0.038270000000     0.0635988  
H350     H      0.008070000000     0.214530000000     0.887120000000     0.0441765  
H351     H      0.107650000000     0.273190000000     0.920570000000     0.0397758  
H352     H      0.108530000000     0.260680000000     0.006540000000     0.0581977  
N1       N      0.506100000000     0.468440000000     0.691570000000    -0.171163   
N2       N      0.556590000000     0.477930000000     0.781900000000    -0.163486   
N3       N      0.479100000000     0.371840000000     0.696360000000    -0.0245913  
N4       N      0.496180000000     0.543350000000     0.173110000000    -0.170687   
N5       N      0.461020000000     0.505040000000     0.264060000000    -0.162754   
N6       N      0.433890000000     0.586590000000     0.159300000000    -0.0206322  
N7       N      0.375190000000     0.633150000000     0.495560000000    -0.177034   
N8       N      0.437640000000     0.744070000000     0.496570000000    -0.162613   
N9       N      0.369250000000     0.618540000000     0.580590000000    -0.0243254  
N10      N      0.514480000000     0.208380000000     0.472990000000    -0.156792   
N11      N      0.562990000000     0.321090000000     0.462810000000    -0.164489   
N12      N      0.541120000000     0.218550000000     0.560230000000    -0.0296798  
N13      N      0.585910000000     0.022470000000     0.784490000000    -0.166624   
N14      N      0.556280000000     0.009510000000     0.689010000000    -0.160191   
N15      N      0.610590000000     0.947330000000     0.791430000000    -0.0304504  
N16      N      0.400420000000     0.946630000000     0.276330000000    -0.169274   
N17      N      0.421290000000     0.958840000000     0.180200000000    -0.150702   
N18      N      0.440670000000     0.041750000000     0.250910000000    -0.0234292  
N19      N      0.496980000000     0.712790000000     0.915600000000    -0.167015   
N20      N      0.561640000000     0.817530000000     0.945410000000    -0.156568   
N21      N      0.426030000000     0.688420000000     0.976070000000    -0.018144   
N22      N      0.446730000000     0.167930000000     0.017260000000    -0.173667   
N23      N      0.495810000000     0.278140000000     0.032650000000    -0.162037   
N24      N      0.409910000000     0.138060000000     0.095090000000    -0.0251155  
N25      N      0.695890000000     0.173050000000     0.487490000000    -0.166387   
N26      N      0.793190000000     0.257530000000     0.436910000000    -0.164277   
N27      N      0.628270000000     0.197890000000     0.441560000000    -0.0356389  
N28      N      0.160710000000     0.685930000000     0.534750000000    -0.160274   
N29      N      0.237260000000     0.764140000000     0.468520000000    -0.159092   
N30      N      0.157310000000     0.767170000000     0.548260000000    -0.0314524  
N31      N      0.694560000000     0.523730000000     0.386800000000    -0.170587   
N32      N      0.779290000000     0.510380000000     0.448550000000    -0.15415    
N33      N      0.731050000000     0.480100000000     0.344690000000    -0.0247764  
N34      N      0.175580000000     0.436100000000     0.472900000000    -0.176458   
N35      N      0.255430000000     0.446960000000     0.549610000000    -0.155788   
N36      N      0.187370000000     0.356870000000     0.475770000000    -0.027063   
N37      N      0.913670000000     0.474800000000     0.668710000000    -0.168596   
N38      N      0.963470000000     0.481800000000     0.759180000000    -0.160335   
N39      N      0.866010000000     0.375800000000     0.678350000000    -0.0232351  
N40      N      0.055200000000     0.490060000000     0.184600000000    -0.166874   
N41      N      0.998890000000     0.449800000000     0.268860000000    -0.163736   
N42      N      0.049290000000     0.575240000000     0.188540000000    -0.0272295  
N43      N      0.826450000000     0.267800000000     0.881600000000    -0.163527   
N44      N      0.728610000000     0.165210000000     0.888000000000    -0.157634   
N45      N      0.766220000000     0.303500000000     0.836730000000    -0.0286298  
N46      N      0.251530000000     0.814060000000     0.028710000000    -0.161444   
N47      N      0.145260000000     0.713120000000     0.026840000000    -0.15595    
N48      N      0.232460000000     0.821430000000     0.107770000000    -0.0298678  
N49      N      0.713090000000     0.461430000000     0.964300000000    -0.174414   
N50      N      0.789100000000     0.464900000000     0.042130000000    -0.162994   
N51      N      0.776660000000     0.556390000000     0.940360000000    -0.0264948  
N52      N      0.296660000000     0.525730000000     0.954360000000    -0.168951   
N53      N      0.200630000000     0.517250000000     0.889910000000    -0.164343   
N54      N      0.354430000000     0.593550000000     0.895360000000    -0.0203713  
N55      N      0.745990000000     0.779920000000     0.557050000000    -0.162259   
N56      N      0.640450000000     0.683200000000     0.574250000000    -0.160177   
N57      N      0.799600000000     0.744140000000     0.611650000000    -0.0294841  
N58      N      0.207310000000     0.165980000000     0.400170000000    -0.164732   
N59      N      0.319130000000     0.265630000000     0.399750000000    -0.157296   
N60      N      0.153950000000     0.216250000000     0.372530000000    -0.0257264  
N61      N      0.606030000000     0.916440000000     0.383330000000    -0.171626   
N62      N      0.722410000000     0.930890000000     0.405170000000    -0.157071   
N63      N      0.586100000000     0.823890000000     0.385740000000    -0.0211941  
N64      N      0.341960000000     0.059960000000     0.579930000000    -0.168292   
N65      N      0.222970000000     0.018330000000     0.545100000000    -0.159762   
N66      N      0.377510000000     0.129760000000     0.516230000000    -0.0181675  
N67      N      0.002040000000     0.698580000000     0.432060000000    -0.163928   
N68      N      0.051460000000     0.813680000000     0.430280000000    -0.165201   
N69      N      0.963190000000     0.696090000000     0.510140000000    -0.0337637  
N70      N      0.950720000000     0.238250000000     0.518960000000    -0.165982   
N71      N      0.901700000000     0.125390000000     0.536810000000    -0.163685   
N72      N      0.988970000000     0.252630000000     0.600130000000    -0.0314799  
N73      N      0.898950000000     0.934790000000     0.771490000000    -0.167729   
N74      N      0.896730000000     0.930050000000     0.673850000000    -0.152459   
N75      N      0.936090000000     0.026340000000     0.736630000000    -0.0240274  
N76      N      0.049020000000     0.006540000000     0.272110000000    -0.16953    
N77      N      0.079440000000     0.021880000000     0.178860000000    -0.159537   
N78      N      0.032410000000     0.084100000000     0.260510000000    -0.0313906  
N79      N      0.681070000000     0.708870000000     0.019230000000    -0.172388   
N80      N      0.772370000000     0.782320000000     0.960390000000    -0.159638   
N81      N      0.682890000000     0.793410000000     0.024320000000    -0.0233522  
N82      N      0.323330000000     0.283100000000     0.947880000000    -0.167869   
N83      N      0.228480000000     0.191260000000     0.994220000000    -0.157306   
N84      N      0.233360000000     0.247220000000     0.897200000000    -0.0329123  
N85      N      0.745300000000     0.015140000000     0.058270000000    -0.165681   
N86      N      0.863820000000     0.039360000000     0.084220000000    -0.158599   
N87      N      0.714450000000     0.954970000000     0.131710000000    -0.0297645  
N88      N      0.131810000000     0.900190000000     0.880200000000    -0.166895   
N89      N      0.253050000000     0.946550000000     0.910650000000    -0.159617   
N90      N      0.154610000000     0.945840000000     0.802630000000    -0.0277187  
N91      N      0.992030000000     0.763540000000     0.980910000000    -0.171178   
N92      N      0.928850000000     0.651770000000     0.981280000000    -0.150592   
N93      N      0.032230000000     0.740570000000     0.921220000000    -0.0271101  
N94      N      0.004340000000     0.200970000000     0.961760000000    -0.175614   
N95      N      0.080960000000     0.310670000000     0.963870000000    -0.167119   
N96      N      0.997170000000     0.191230000000     0.047390000000    -0.0248074  
O1       O      0.182090000000     0.102160000000     0.987210000000    -0.385542   
O2       O      0.131160000000     0.138390000000     0.011020000000    -0.357374   
O3       O      0.927850000000     0.990180000000     0.830600000000    -0.355916   
O4       O      0.929110000000     0.910690000000     0.842800000000    -0.380172   
O5       O      0.986300000000     0.127220000000     0.925330000000    -0.373743   
O6       O      0.023400000000     0.137170000000     0.999710000000    -0.355152   
O7       O      0.130430000000     0.970550000000     0.905050000000    -0.36899    
O8       O      0.043960000000     0.895560000000     0.890360000000    -0.341138   
O9       O      0.134890000000     0.093170000000     0.870350000000    -0.345178   
O10      O      0.214280000000     0.056630000000     0.936530000000    -0.50858    
O11      O      0.020670000000     0.105260000000     0.837830000000    -0.526167   
O12      O      0.878590000000     0.044990000000     0.876600000000    -0.329361   
O13      O      0.058150000000     0.076700000000     0.945800000000    -0.498677   
O14      O      0.024740000000     0.997560000000     0.892680000000    -0.632951   
O15      O      0.014500000000     0.837850000000     0.019430000000    -0.36677    
O16      O      0.977110000000     0.830020000000     0.945040000000    -0.375665   
O17      O      0.892410000000     0.978800000000     0.073580000000    -0.37732    
O18      O      0.954490000000     0.066260000000     0.057270000000    -0.344407   
O19      O      0.821900000000     0.873080000000     0.952600000000    -0.361655   
O20      O      0.868230000000     0.829110000000     0.937970000000    -0.361065   
O21      O      0.060460000000     0.970360000000     0.118290000000    -0.364003   
O22      O      0.061620000000     0.051010000000     0.105490000000    -0.37192    
O23      O      0.989310000000     0.856180000000     0.107690000000    -0.529105   
O24      O      0.129280000000     0.930150000000     0.065690000000    -0.346633   
O25      O      0.851740000000     0.855720000000     0.063370000000    -0.348459   
O26      O      0.797480000000     0.935450000000     0.004510000000    -0.530376   
O27      O      0.943660000000     0.889800000000     0.001400000000    -0.631945   
O28      O      0.978180000000     0.968560000000     0.052780000000    -0.493317   
O29      O      0.057020000000     0.940870000000     0.967410000000    -0.498484   
O30      O      0.943130000000     0.024920000000     0.978230000000    -0.633685   
O31      O      0.091300000000     0.017370000000     0.020260000000    -0.628763   
O32      O      0.910390000000     0.949200000000     0.927890000000    -0.489079   
O33      O      0.980710000000     0.832560000000     0.440910000000    -0.386069   
O34      O      0.069920000000     0.901140000000     0.420490000000    -0.366295   
O35      O      0.818190000000     0.962470000000     0.389270000000    -0.359285   
O36      O      0.792060000000     0.942740000000     0.464160000000    -0.365909   
O37      O      0.984050000000     0.997680000000     0.323120000000    -0.373093   
O38      O      0.063830000000     0.987770000000     0.349360000000    -0.365894   
O39      O      0.828770000000     0.812560000000     0.515960000000    -0.346931   
O40      O      0.800050000000     0.870420000000     0.534930000000    -0.355391   
O41      O      0.849270000000     0.807520000000     0.409530000000    -0.362777   
O42      O      0.910370000000     0.777770000000     0.510020000000    -0.517326   
O43      O      0.861170000000     0.917090000000     0.328470000000    -0.52613    
O44      O      0.916600000000     0.055210000000     0.339750000000    -0.341105   
O45      O      0.964810000000     0.924850000000     0.408260000000    -0.491891   
O46      O      0.872770000000     0.912700000000     0.446750000000    -0.636583   
O47      O      0.958240000000     0.937140000000     0.621270000000    -0.367721   
O48      O      0.881620000000     0.952230000000     0.596820000000    -0.361665   
O49      O      0.119770000000     0.131720000000     0.434920000000    -0.347949   
O50      O      0.147910000000     0.073910000000     0.414760000000    -0.349583   
O51      O      0.972530000000     0.111020000000     0.515670000000    -0.373568   
O52      O      0.879750000000     0.040960000000     0.524730000000    -0.369301   
O53      O      0.126600000000     0.983180000000     0.558960000000    -0.368027   
O54      O      0.153930000000     0.003350000000     0.484520000000    -0.358465   
O55      O      0.077490000000     0.021760000000     0.619480000000    -0.526172   
O56      O      0.030140000000     0.885580000000     0.602900000000    -0.339214   
O57      O      0.098980000000     0.143970000000     0.528930000000    -0.335099   
O58      O      0.018110000000     0.151710000000     0.424720000000    -0.522001   
O59      O      0.980970000000     0.017020000000     0.537450000000    -0.630934   
O60      O      0.071520000000     0.028030000000     0.498700000000    -0.500364   
O61      O      0.925810000000     0.904120000000     0.535740000000    -0.493787   
O62      O      0.018740000000     0.036650000000     0.410050000000    -0.630922   
O63      O      0.017690000000     0.915450000000     0.495820000000    -0.626314   
O64      O      0.927170000000     0.026230000000     0.449890000000    -0.490846   
O65      O      0.068630000000     0.367420000000     0.004210000000    -0.380499   
O66      O      0.047390000000     0.365570000000     0.926470000000    -0.37166    
O67      O      0.831670000000     0.416930000000     0.027990000000    -0.379238   
O68      O      0.889930000000     0.502050000000     0.048730000000    -0.344055   
O69      O      0.851160000000     0.329000000000     0.932830000000    -0.384145   
O70      O      0.923250000000     0.334790000000     0.892180000000    -0.356284   
O71      O      0.057320000000     0.457240000000     0.117660000000    -0.368469   
O72      O      0.018890000000     0.513230000000     0.115510000000    -0.356087   
O73      O      0.012010000000     0.349050000000     0.093010000000    -0.337317   
O74      O      0.149550000000     0.455450000000     0.065480000000    -0.527393   
O75      O      0.885200000000     0.323820000000     0.050680000000    -0.529707   
O76      O      0.785300000000     0.332920000000     0.989980000000    -0.325217   
O77      O      0.973630000000     0.382780000000     0.983310000000    -0.501247   
O78      O      0.964410000000     0.437590000000     0.048810000000    -0.63107    
O79      O      0.134820000000     0.644270000000     0.989530000000    -0.37962    
O80      O      0.074320000000     0.625210000000     0.047410000000    -0.334802   
O81      O      0.966470000000     0.515410000000     0.826850000000    -0.366887   
O82      O      0.979870000000     0.442620000000     0.828260000000    -0.370195   
O83      O      0.935470000000     0.591230000000     0.941290000000    -0.352622   
O84      O      0.959290000000     0.594860000000     0.018620000000    -0.365715   
O85      O      0.131180000000     0.544590000000     0.881900000000    -0.362187   
O86      O      0.102360000000     0.458890000000     0.876390000000    -0.353694   
O87      O      0.183630000000     0.647420000000     0.917260000000    -0.522233   
O88      O      0.199850000000     0.563180000000     0.998200000000    -0.360558   
O89      O      0.976560000000     0.608330000000     0.854640000000    -0.324679   
O90      O      0.851850000000     0.490600000000     0.877650000000    -0.528344   
O91      O      0.030030000000     0.571840000000     0.960650000000    -0.6397     
O92      O      0.038120000000     0.519650000000     0.898150000000    -0.471495   
O93      O      0.079580000000     0.523880000000     0.030070000000    -0.491603   
O94      O      0.922230000000     0.433510000000     0.915400000000    -0.634889   
O95      O      0.084210000000     0.470030000000     0.966130000000    -0.625259   
O96      O      0.918120000000     0.485000000000     0.978580000000    -0.493066   
O97      O      0.959140000000     0.315570000000     0.542620000000    -0.342569   
O98      O      0.971870000000     0.311320000000     0.467560000000    -0.347046   
O99      O      0.809290000000     0.452900000000     0.485170000000    -0.388034   
O100     O      0.873640000000     0.540200000000     0.484680000000    -0.32078    
O101     O      0.831850000000     0.342640000000     0.403160000000    -0.384431   
O102     O      0.892530000000     0.310670000000     0.427190000000    -0.339758   
O103     O      0.937510000000     0.436840000000     0.616520000000    -0.366509   
O104     O      0.941690000000     0.518120000000     0.596440000000    -0.372664   
O105     O      0.880770000000     0.324160000000     0.595950000000    -0.310742   
O106     O      0.029360000000     0.398710000000     0.617090000000    -0.521095   
O107     O      0.775230000000     0.346840000000     0.495700000000    -0.530539   
O108     O      0.790150000000     0.408750000000     0.385950000000    -0.327401   
O109     O      0.913060000000     0.372580000000     0.482830000000    -0.496517   
O110     O      0.903110000000     0.441820000000     0.525280000000    -0.627421   
O111     O      0.136190000000     0.600630000000     0.526490000000    -0.392318   
O112     O      0.062630000000     0.618800000000     0.534570000000    -0.334369   
O113     O      0.000100000000     0.493330000000     0.328340000000    -0.375848   
O114     O      0.995490000000     0.411450000000     0.344290000000    -0.370121   
O115     O      0.000260000000     0.624280000000     0.404940000000    -0.360638   
O116     O      0.983090000000     0.622920000000     0.479410000000    -0.338088   
O117     O      0.131970000000     0.485160000000     0.440030000000    -0.373109   
O118     O      0.080650000000     0.396840000000     0.440750000000    -0.352929   
O119     O      0.199190000000     0.578000000000     0.487410000000    -0.521693   
O120     O      0.127410000000     0.480770000000     0.567050000000    -0.366276   
O121     O      0.081490000000     0.604320000000     0.353590000000    -0.336015   
O122     O      0.928290000000     0.546550000000     0.332710000000    -0.525267   
O123     O      0.042330000000     0.560300000000     0.464370000000    -0.636815   
O124     O      0.050530000000     0.492010000000     0.421090000000    -0.470179   
O125     O      0.023510000000     0.495120000000     0.547940000000    -0.490704   
O126     O      0.930550000000     0.440780000000     0.399380000000    -0.622065   
O127     O      0.034050000000     0.422460000000     0.504140000000    -0.627219   
O128     O      0.918250000000     0.508500000000     0.441950000000    -0.487555   
O129     O      0.348400000000     0.975720000000     0.894530000000    -0.36718    
O130     O      0.325150000000     0.969490000000     0.968920000000    -0.357965   
O131     O      0.504920000000     0.849400000000     0.964630000000    -0.390476   
O132     O      0.590930000000     0.908640000000     0.933050000000    -0.352214   
O133     O      0.343300000000     0.842200000000     0.007320000000    -0.375876   
O134     O      0.325090000000     0.901870000000     0.037020000000    -0.32751    
O135     O      0.520030000000     0.016380000000     0.832900000000    -0.363753   
O136     O      0.594140000000     0.999280000000     0.861720000000    -0.343017   
O137     O      0.396520000000     0.932200000000     0.835540000000    -0.341687   
O138     O      0.448880000000     0.071170000000     0.845160000000    -0.533563   
O139     O      0.384890000000     0.817600000000     0.929070000000    -0.526529   
O140     O      0.428910000000     0.809530000000     0.044540000000    -0.330196   
O141     O      0.403920000000     0.938650000000     0.957040000000    -0.499559   
O142     O      0.491620000000     0.939140000000     0.919820000000    -0.628058   
O143     O      0.644500000000     0.138220000000     0.924380000000    -0.363395   
O144     O      0.677940000000     0.078980000000     0.921870000000    -0.356961   
O145     O      0.488750000000     0.970370000000     0.131040000000    -0.376512   
O146     O      0.410920000000     0.982500000000     0.103110000000    -0.354238   
O147     O      0.652550000000     0.997610000000     0.070460000000    -0.34643    
O148     O      0.677860000000     0.003180000000     0.997060000000    -0.362169   
O149     O      0.505590000000     0.137520000000     0.999680000000    -0.387696   
O150     O      0.417780000000     0.076670000000     0.028710000000    -0.354198   
O151     O      0.636490000000     0.155360000000     0.033930000000    -0.533041   
O152     O      0.582940000000     0.187640000000     0.935000000000    -0.327187   
O153     O      0.613060000000     0.052800000000     0.125350000000    -0.332482   
O154     O      0.551640000000     0.911310000000     0.119270000000    -0.523516   
O155     O      0.604290000000     0.046550000000     0.006410000000    -0.634994   
O156     O      0.514970000000     0.044990000000     0.042560000000    -0.494083   
O157     O      0.551900000000     0.050190000000     0.916250000000    -0.49405    
O158     O      0.453780000000     0.931890000000     0.046600000000    -0.637737   
O159     O      0.462550000000     0.049870000000     0.952970000000    -0.623541   
O160     O      0.543210000000     0.933180000000     0.010230000000    -0.496797   
O161     O      0.481300000000     0.129300000000     0.437430000000    -0.3571     
O162     O      0.510900000000     0.133980000000     0.513120000000    -0.337258   
O163     O      0.281570000000     0.853630000000     0.474450000000    -0.372725   
O164     O      0.332600000000     0.819320000000     0.446970000000    -0.355306   
O165     O      0.340240000000     0.988280000000     0.555120000000    -0.39028    
O166     O      0.427950000000     0.064190000000     0.563350000000    -0.329204   
O167     O      0.419290000000     0.994270000000     0.338990000000    -0.358442   
O168     O      0.408580000000     0.909770000000     0.349410000000    -0.378575   
O169     O      0.356520000000     0.041700000000     0.391560000000    -0.353679   
O170     O      0.495590000000     0.104220000000     0.349550000000    -0.522201   
O171     O      0.260140000000     0.925480000000     0.494180000000    -0.513614   
O172     O      0.324840000000     0.872630000000     0.582810000000    -0.342348   
O173     O      0.418060000000     0.022550000000     0.488010000000    -0.489757   
O174     O      0.381070000000     0.945230000000     0.433590000000    -0.629614   
O175     O      0.567510000000     0.971910000000     0.385480000000    -0.358861   
O176     O      0.509480000000     0.884710000000     0.400510000000    -0.34649    
O177     O      0.529270000000     0.957740000000     0.627970000000    -0.3784     
O178     O      0.535210000000     0.040400000000     0.617150000000    -0.376458   
O179     O      0.461430000000     0.819490000000     0.532950000000    -0.363284   
O180     O      0.433450000000     0.814500000000     0.456250000000    -0.369114   
O181     O      0.651830000000     0.082920000000     0.504300000000    -0.380658   
O182     O      0.605060000000     0.126360000000     0.519600000000    -0.329205   
O183     O      0.652100000000     0.980020000000     0.480250000000    -0.539079   
O184     O      0.657000000000     0.076640000000     0.404810000000    -0.349586   
O185     O      0.571240000000     0.893710000000     0.585930000000    -0.349012   
O186     O      0.428410000000     0.846100000000     0.617920000000    -0.525577   
O187     O      0.518870000000     0.922070000000     0.481880000000    -0.631598   
O188     O      0.555930000000     0.000100000000     0.534670000000    -0.492863   
O189     O      0.496920000000     0.987570000000     0.407760000000    -0.471514   
O190     O      0.440050000000     0.959480000000     0.562360000000    -0.632529   
O191     O      0.533950000000     0.062720000000     0.458550000000    -0.637626   
O192     O      0.403060000000     0.880600000000     0.508380000000    -0.491264   
O193     O      0.486630000000     0.349220000000     0.053620000000    -0.366157   
O194     O      0.515060000000     0.350930000000     0.982260000000    -0.365625   
O195     O      0.335700000000     0.477710000000     0.996740000000    -0.391329   
O196     O      0.392650000000     0.565760000000     0.986760000000    -0.317835   
O197     O      0.357770000000     0.367200000000     0.912400000000    -0.382392   
O198     O      0.422500000000     0.339850000000     0.937590000000    -0.342613   
O199     O      0.496670000000     0.492540000000     0.119970000000    -0.371832   
O200     O      0.479530000000     0.562540000000     0.095590000000    -0.357369   
O201     O      0.410120000000     0.375890000000     0.107030000000    -0.352973   
O202     O      0.562250000000     0.431940000000     0.119300000000    -0.528278   
O203     O      0.306610000000     0.368640000000     0.005920000000    -0.533717   
O204     O      0.310290000000     0.437100000000     0.896970000000    -0.349081   
O205     O      0.442700000000     0.403420000000     0.990950000000    -0.499105   
O206     O      0.430330000000     0.474240000000     0.030190000000    -0.623745   
O207     O      0.639360000000     0.620060000000     0.045340000000    -0.371886   
O208     O      0.580460000000     0.655000000000     0.024950000000    -0.346985   
O209     O      0.539780000000     0.520780000000     0.833340000000    -0.380906   
O210     O      0.527940000000     0.436890000000     0.854570000000    -0.377442   
O211     O      0.508370000000     0.643370000000     0.894050000000    -0.353927   
O212     O      0.492040000000     0.646170000000     0.968220000000    -0.349456   
O213     O      0.674240000000     0.513030000000     0.975710000000    -0.383913   
O214     O      0.614350000000     0.433180000000     0.945610000000    -0.360412   
O215     O      0.679190000000     0.623610000000     0.930320000000    -0.534885   
O216     O      0.713830000000     0.584280000000     0.036540000000    -0.328585   
O217     O      0.581830000000     0.631680000000     0.840030000000    -0.344122   
O218     O      0.433760000000     0.545050000000     0.829920000000    -0.52779    
O219     O      0.561580000000     0.593980000000     0.958060000000    -0.637608   
O220     O      0.573590000000     0.522020000000     0.919960000000    -0.491065   
O221     O      0.551150000000     0.532900000000     0.044670000000    -0.48204    
O222     O      0.452840000000     0.463020000000     0.904070000000    -0.619313   
O223     O      0.566100000000     0.463510000000     0.008370000000    -0.633798   
O224     O      0.438030000000     0.533060000000     0.942000000000    -0.484164   
O225     O      0.542490000000     0.371210000000     0.504570000000    -0.372762   
O226     O      0.525360000000     0.373220000000     0.426450000000    -0.376202   
O227     O      0.305160000000     0.403520000000     0.539240000000    -0.368872   
O228     O      0.356000000000     0.491130000000     0.554330000000    -0.342507   
O229     O      0.362130000000     0.317960000000     0.459250000000    -0.357184   
O230     O      0.403880000000     0.349100000000     0.390770000000    -0.348999   
O231     O      0.508730000000     0.440220000000     0.622900000000    -0.359168   
O232     O      0.481820000000     0.504450000000     0.623790000000    -0.377615   
O233     O      0.471500000000     0.337550000000     0.586010000000    -0.318395   
O234     O      0.611960000000     0.447780000000     0.579060000000    -0.527809   
O235     O      0.295660000000     0.312740000000     0.527180000000    -0.514318   
O236     O      0.283280000000     0.380050000000     0.426800000000    -0.34204    
O237     O      0.447500000000     0.387410000000     0.482340000000    -0.490603   
O238     O      0.429950000000     0.432790000000     0.548550000000    -0.634581   
O239     O      0.618010000000     0.605720000000     0.544280000000    -0.361966   
O240     O      0.543660000000     0.618610000000     0.558230000000    -0.35316    
O241     O      0.441730000000     0.523730000000     0.332080000000    -0.379256   
O242     O      0.478120000000     0.466090000000     0.332680000000    -0.379666   
O243     O      0.398930000000     0.586010000000     0.452090000000    -0.371331   
O244     O      0.420810000000     0.586470000000     0.529620000000    -0.352179   
O245     O      0.647710000000     0.556490000000     0.421470000000    -0.383734   
O246     O      0.593450000000     0.476680000000     0.389630000000    -0.359221   
O247     O      0.607910000000     0.653030000000     0.428480000000    -0.541178   
O248     O      0.694280000000     0.617650000000     0.484060000000    -0.332193   
O249     O      0.477390000000     0.626890000000     0.372190000000    -0.338504   
O250     O      0.338470000000     0.515170000000     0.374050000000    -0.532708   
O251     O      0.503900000000     0.577290000000     0.472840000000    -0.633089   
O252     O      0.519850000000     0.530580000000     0.407060000000    -0.496605   
O253     O      0.547060000000     0.519510000000     0.540750000000    -0.485363   
O254     O      0.403710000000     0.443410000000     0.414160000000    -0.63031    
O255     O      0.560720000000     0.475410000000     0.475430000000    -0.62974    
O256     O      0.391250000000     0.487540000000     0.481050000000    -0.496749   
O257     O      0.528590000000     0.374080000000     0.685890000000    -0.0979813  
O258     O      0.450440000000     0.326540000000     0.723200000000    -0.105642   
O259     O      0.384700000000     0.543720000000     0.145790000000    -0.106111   
O260     O      0.418350000000     0.617070000000     0.178730000000    -0.103358   
O261     O      0.419990000000     0.631060000000     0.604730000000    -0.102536   
O262     O      0.334110000000     0.621660000000     0.608380000000    -0.117718   
O263     O      0.584990000000     0.207700000000     0.559410000000    -0.0812036  
O264     O      0.494000000000     0.175140000000     0.576740000000    -0.0765234  
O265     O      0.560910000000     0.914800000000     0.812450000000    -0.118226   
O266     O      0.654490000000     0.967370000000     0.823460000000    -0.0961695  
O267     O      0.488370000000     0.047100000000     0.233500000000    -0.0961118  
O268     O      0.427840000000     0.078250000000     0.227850000000    -0.100943   
O269     O      0.445160000000     0.681390000000     0.019350000000    -0.0921756  
O270     O      0.384790000000     0.702190000000     0.979030000000    -0.11295    
O271     O      0.459750000000     0.141920000000     0.115630000000    -0.0998557  
O272     O      0.382550000000     0.146640000000     0.126260000000    -0.107773   
O273     O      0.636640000000     0.233810000000     0.470250000000    -0.105516   
O274     O      0.615410000000     0.214490000000     0.399310000000    -0.129571   
O275     O      0.214500000000     0.795580000000     0.558870000000    -0.10572    
O276     O      0.131290000000     0.740340000000     0.587100000000    -0.0911895  
O277     O      0.788520000000     0.502120000000     0.355530000000    -0.11677    
O278     O      0.713170000000     0.431620000000     0.330750000000    -0.107218   
O279     O      0.160130000000     0.348990000000     0.433830000000    -0.0862827  
O280     O      0.170980000000     0.308320000000     0.497690000000    -0.10636    
O281     O      0.846830000000     0.334010000000     0.710100000000    -0.0910929  
O282     O      0.819040000000     0.371810000000     0.652450000000    -0.108357   
O283     O      0.999020000000     0.566540000000     0.165320000000    -0.110236   
O284     O      0.092630000000     0.598760000000     0.159510000000    -0.0989232  
O285     O      0.800620000000     0.310800000000     0.803110000000    -0.0950292  
O286     O      0.787690000000     0.350200000000     0.855210000000    -0.130142   
O287     O      0.217740000000     0.857640000000     0.086910000000    -0.0982792  
O288     O      0.288060000000     0.847760000000     0.124150000000    -0.108671   
O289     O      0.796950000000     0.598170000000     0.965720000000    -0.116459   
O290     O      0.812870000000     0.570620000000     0.906370000000    -0.117251   
O291     O      0.337110000000     0.561490000000     0.861070000000    -0.108059   
O292     O      0.369500000000     0.643120000000     0.876420000000    -0.108562   
O293     O      0.806300000000     0.783300000000     0.636090000000    -0.109801   
O294     O      0.849490000000     0.761090000000     0.591340000000    -0.10703    
O295     O      0.148870000000     0.234310000000     0.410790000000    -0.0920598  
O296     O      0.153190000000     0.250210000000     0.337090000000    -0.0986647  
O297     O      0.624280000000     0.828690000000     0.356510000000    -0.109562   
O298     O      0.575720000000     0.781050000000     0.415220000000    -0.125615   
O299     O      0.375150000000     0.108320000000     0.477580000000    -0.116327   
O300     O      0.375490000000     0.175160000000     0.503650000000    -0.122512   
O301     O      0.001750000000     0.686380000000     0.537470000000    -0.0897545  
O302     O      0.913360000000     0.650360000000     0.504540000000    -0.104032   
O303     O      0.941260000000     0.246050000000     0.618580000000    -0.0906448  
O304     O      0.019250000000     0.238580000000     0.633350000000    -0.105322   
O305     O      0.977840000000     0.026540000000     0.714200000000    -0.109082   
O306     O      0.920710000000     0.060870000000     0.712930000000    -0.107855   
O307     O      0.086240000000     0.118130000000     0.276650000000    -0.1074     
O308     O      0.014080000000     0.111990000000     0.229740000000    -0.101737   
O309     O      0.739240000000     0.820650000000     0.038010000000    -0.102121   
O310     O      0.668000000000     0.828790000000     0.001870000000    -0.112976   
O311     O      0.246660000000     0.208740000000     0.892960000000    -0.107365   
O312     O      0.254470000000     0.283510000000     0.861240000000    -0.101068   
O313     O      0.683970000000     0.917370000000     0.102180000000    -0.104377   
O314     O      0.677430000000     0.964730000000     0.151290000000    -0.0980345  
O315     O      0.158550000000     0.992690000000     0.809380000000    -0.109226   
O316     O      0.188660000000     0.955010000000     0.768180000000    -0.111751   
O317     O      0.024760000000     0.731810000000     0.876570000000    -0.109246   
O318     O      0.040450000000     0.701680000000     0.944600000000    -0.129891   
O319     O      0.044810000000     0.193280000000     0.070930000000    -0.0953713  
O320     O      0.971870000000     0.206640000000     0.074980000000    -0.118102   
Zr1      Zr     0.112490000000     0.032150000000     0.940460000000     1.39651    
Zr2      Zr     0.968390000000     0.040620000000     0.900160000000     1.37893    
Zr3      Zr     0.033940000000     0.925030000000     0.045840000000     1.37776    
Zr4      Zr     0.889080000000     0.934090000000     0.007380000000     1.39377    
Zr5      Zr     0.033350000000     0.060090000000     0.024440000000     1.3846     
Zr6      Zr     0.966920000000     0.906290000000     0.921990000000     1.37223    
Zr7      Zr     0.917720000000     0.859670000000     0.470380000000     1.38292    
Zr8      Zr     0.919560000000     0.979330000000     0.385700000000     1.37996    
Zr9      Zr     0.024540000000     0.961610000000     0.559700000000     1.39597    
Zr10     Zr     0.027020000000     0.082240000000     0.474940000000     1.39261    
Zr11     Zr     0.065020000000     0.982530000000     0.433680000000     1.35308    
Zr12     Zr     0.881320000000     0.959180000000     0.512010000000     1.364      
Zr13     Zr     0.049220000000     0.430020000000     0.039820000000     1.38769    
Zr14     Zr     0.891190000000     0.392470000000     0.990960000000     1.38752    
Zr15     Zr     0.114310000000     0.563210000000     0.955760000000     1.37834    
Zr16     Zr     0.953240000000     0.527070000000     0.905530000000     1.3883     
Zr17     Zr     0.006970000000     0.425060000000     0.908360000000     1.37379    
Zr18     Zr     0.993830000000     0.531490000000     0.034990000000     1.37006    
Zr19     Zr     0.960580000000     0.400250000000     0.555570000000     1.39465    
Zr20     Zr     0.856740000000     0.413630000000     0.451990000000     1.39885    
Zr21     Zr     0.096130000000     0.515930000000     0.495760000000     1.38851    
Zr22     Zr     0.994320000000     0.535980000000     0.392200000000     1.37728    
Zr23     Zr     0.986160000000     0.396120000000     0.429110000000     1.35536    
Zr24     Zr     0.966710000000     0.537580000000     0.515190000000     1.35867    
Zr25     Zr     0.451760000000     0.997130000000     0.892600000000     1.37897    
Zr26     Zr     0.443280000000     0.881880000000     0.984900000000     1.40694    
Zr27     Zr     0.563790000000     0.102010000000     0.976870000000     1.38183    
Zr28     Zr     0.553830000000     0.986510000000     0.070160000000     1.39601    
Zr29     Zr     0.413640000000     0.989880000000     0.018830000000     1.36099    
Zr30     Zr     0.592730000000     0.993050000000     0.945490000000     1.37087    
Zr31     Zr     0.446960000000     0.037420000000     0.411710000000     1.38954    
Zr32     Zr     0.355140000000     0.931170000000     0.511650000000     1.40726    
Zr33     Zr     0.583010000000     0.012250000000     0.457140000000     1.38401    
Zr34     Zr     0.489020000000     0.908900000000     0.558070000000     1.38261    
Zr35     Zr     0.505640000000     0.050280000000     0.536250000000     1.38364    
Zr36     Zr     0.432150000000     0.895630000000     0.431240000000     1.36611    
Zr37     Zr     0.492830000000     0.438160000000     0.060760000000     1.37774    
Zr38     Zr     0.381050000000     0.439110000000     0.958920000000     1.39487    
Zr39     Zr     0.622330000000     0.557640000000     0.990090000000     1.40205    
Zr40     Zr     0.510510000000     0.557880000000     0.888940000000     1.39377    
Zr41     Zr     0.515710000000     0.427060000000     0.937620000000     1.36234    
Zr42     Zr     0.488770000000     0.569590000000     0.012580000000     1.38389    
Zr43     Zr     0.516010000000     0.426210000000     0.544020000000     1.39812    
Zr44     Zr     0.362560000000     0.394990000000     0.485040000000     1.39076    
Zr45     Zr     0.587980000000     0.568040000000     0.470280000000     1.38294    
Zr46     Zr     0.433330000000     0.536790000000     0.411690000000     1.38078    
Zr47     Zr     0.490840000000     0.436930000000     0.412320000000     1.36349    
Zr48     Zr     0.461090000000     0.527100000000     0.543120000000     1.36981    


