data_structure

_audit_creation_method RASPA-1.0
_audit_creation_date 2023-6-4
_audit_author_name 'Poobodin Mano'

_cell_length_a    42.4649
_cell_length_b    45.7461
_cell_length_c    46.6493
_cell_angle_alpha 82.775
_cell_angle_beta  96.3143
_cell_angle_gamma 119.44
_cell_volume      78170.9

_symmetry_cell_setting          triclinic
_symmetry_space_group_name_Hall 'P 1'
_symmetry_space_group_name_H-M  'P 1'
_symmetry_Int_Tables_number     1

_symmetry_equiv_pos_as_xyz 'x,y,z'

loop_
_atom_site_label
_atom_site_type_symbol
_atom_site_fract_x
_atom_site_fract_y
_atom_site_fract_z
_atom_site_charge
C1       C      0.095690000000     0.064280000000     0.001800000000     0.401082   
C2       C      0.940980000000     0.956430000000     0.875880000000     0.393915   
C3       C      0.012280000000     0.090710000000     0.962480000000     0.40483    
C4       C      0.028550000000     0.928250000000     0.919730000000     0.402313   
C5       C      0.944150000000     0.855710000000     0.990300000000     0.397281   
C6       C      0.927160000000     0.019900000000     0.031900000000     0.404046   
C7       C      0.860030000000     0.882500000000     0.951680000000     0.393055   
C8       C      0.005540000000     0.987840000000     0.078370000000     0.403124   
C9       C      0.002060000000     0.899910000000     0.440360000000     0.400506   
C10      C      0.864370000000     0.981730000000     0.449180000000     0.399364   
C11      C      0.006110000000     0.993320000000     0.377490000000     0.398578   
C12      C      0.859980000000     0.892210000000     0.508820000000     0.392789   
C13      C      0.941780000000     0.958610000000     0.575200000000     0.399816   
C14      C      0.093370000000     0.067170000000     0.445720000000     0.397818   
C15      C      0.953280000000     0.059520000000     0.515730000000     0.394195   
C16      C      0.091740000000     0.986240000000     0.504690000000     0.396384   
C17      C      0.020700000000     0.391610000000     0.968780000000     0.40082    
C18      C      0.899020000000     0.465680000000     0.034820000000     0.397192   
C19      C      0.901580000000     0.366350000000     0.940150000000     0.398447   
C20      C      0.018430000000     0.482770000000     0.077130000000     0.398907   
C21      C      0.067640000000     0.584950000000     0.007610000000     0.389787   
C22      C      0.964320000000     0.476350000000     0.872040000000     0.405794   
C23      C      0.954640000000     0.562320000000     0.981000000000     0.401284   
C24      C      0.063090000000     0.488410000000     0.907490000000     0.383626   
C25      C      0.947390000000     0.362490000000     0.497140000000     0.397645   
C26      C      0.877780000000     0.504510000000     0.496080000000     0.398877   
C27      C      0.871980000000     0.378550000000     0.424190000000     0.398604   
C28      C      0.961490000000     0.492350000000     0.570240000000     0.398783   
C29      C      0.058040000000     0.576100000000     0.511720000000     0.400482   
C30      C      0.979200000000     0.462680000000     0.373670000000     0.398211   
C31      C      0.981450000000     0.587920000000     0.446690000000     0.392098   
C32      C      0.049470000000     0.452130000000     0.442810000000     0.386486   
C33      C      0.354130000000     0.956130000000     0.944900000000     0.39595    
C34      C      0.506650000000     0.898280000000     0.944820000000     0.394946   
C35      C      0.367470000000     0.892800000000     0.015530000000     0.39774    
C36      C      0.499170000000     0.974240000000     0.873710000000     0.396079   
C37      C      0.586560000000     0.066410000000     0.929870000000     0.39126    
C38      C      0.453040000000     0.983660000000     0.069210000000     0.393877   
C39      C      0.595110000000     0.992820000000     0.000090000000     0.393209   
C40      C      0.450860000000     0.059860000000     0.004570000000     0.396878   
C41      C      0.504650000000     0.093860000000     0.464930000000     0.40254    
C42      C      0.353480000000     0.886940000000     0.446040000000     0.398764   
C43      C      0.422920000000     0.016320000000     0.535320000000     0.400898   
C44      C      0.440330000000     0.967740000000     0.369630000000     0.404502   
C45      C      0.518400000000     0.944680000000     0.406100000000     0.372217   
C46      C      0.509990000000     0.987220000000     0.572960000000     0.392313   
C47      C      0.431490000000     0.857930000000     0.479980000000     0.401926   
C48      C      0.589170000000     0.067060000000     0.495750000000     0.395188   
C49      C      0.452490000000     0.365950000000     0.000510000000     0.39745    
C50      C      0.386390000000     0.509360000000     0.994390000000     0.397525   
C51      C      0.390170000000     0.379790000000     0.937550000000     0.398662   
C52      C      0.450780000000     0.489940000000     0.072960000000     0.399574   
C53      C      0.563990000000     0.577900000000     0.027710000000     0.39718    
C54      C      0.506480000000     0.473270000000     0.883520000000     0.400515   
C55      C      0.499500000000     0.595670000000     0.954140000000     0.400272   
C56      C      0.568540000000     0.452780000000     0.962930000000     0.405362   
C57      C      0.504520000000     0.397480000000     0.476410000000     0.402338   
C58      C      0.377320000000     0.473940000000     0.532740000000     0.397626   
C59      C      0.390420000000     0.377250000000     0.437170000000     0.39178    
C60      C      0.495280000000     0.488850000000     0.581070000000     0.395698   
C61      C      0.551770000000     0.589260000000     0.518020000000     0.395112   
C62      C      0.451660000000     0.481620000000     0.374370000000     0.400068   
C63      C      0.423450000000     0.558630000000     0.481700000000     0.407908   
C64      C      0.558100000000     0.499490000000     0.416820000000     0.390772   
C65      C      0.540030000000     0.499340000000     0.810560000000    -0.142428   
C66      C      0.517470000000     0.471940000000     0.625580000000     0.0706717  
C67      C      0.487550000000     0.504100000000     0.625890000000     0.0695672  
C68      C      0.521130000000     0.469690000000     0.655720000000    -0.0936495  
C69      C      0.541930000000     0.487840000000     0.718760000000    -0.0382882  
C70      C      0.543820000000     0.484420000000     0.749000000000    -0.0320941  
C71      C      0.508900000000     0.480420000000     0.703320000000    -0.00598439 
C72      C      0.490160000000     0.501770000000     0.656140000000    -0.0931967  
C73      C      0.512570000000     0.472920000000     0.764260000000    -0.0164446  
C74      C      0.491050000000     0.442350000000     0.812530000000    -0.107277   
C75      C      0.479400000000     0.464860000000     0.748810000000    -0.0319835  
C76      C      0.491310000000     0.442670000000     0.842430000000     0.075288   
C77      C      0.539950000000     0.499070000000     0.840660000000     0.18423    
C78      C      0.477640000000     0.468850000000     0.718590000000    -0.0382453  
C79      C      0.506880000000     0.484210000000     0.671320000000     0.0483024  
C80      C      0.514800000000     0.471290000000     0.796230000000     0.0697539  
C81      C      0.418390000000     0.466400000000     0.146490000000    -0.141937   
C82      C      0.434210000000     0.501580000000     0.329020000000     0.0703298  
C83      C      0.461630000000     0.467050000000     0.330150000000     0.0712372  
C84      C      0.432330000000     0.504390000000     0.298810000000    -0.0945179  
C85      C      0.477230000000     0.503140000000     0.237800000000    -0.0381446  
C86      C      0.476390000000     0.505510000000     0.207610000000    -0.03217    
C87      C      0.445420000000     0.492300000000     0.252100000000    -0.00649297 
C88      C      0.460860000000     0.469940000000     0.299970000000    -0.0941481  
C89      C      0.443590000000     0.496460000000     0.191290000000    -0.0165542  
C90      C      0.465270000000     0.524260000000     0.142400000000    -0.1073     
C91      C      0.411840000000     0.485960000000     0.205560000000    -0.0324165  
C92      C      0.465390000000     0.522240000000     0.112820000000     0.0763773  
C93      C      0.418780000000     0.464930000000     0.116680000000     0.182056   
C94      C      0.412820000000     0.484240000000     0.235740000000    -0.0383653  
C95      C      0.446180000000     0.488830000000     0.284040000000     0.0488437  
C96      C      0.442230000000     0.495890000000     0.159580000000     0.0698035  
C97      C      0.371610000000     0.604260000000     0.463660000000    -0.143324   
C98      C      0.422510000000     0.806840000000     0.507060000000     0.0697508  
C99      C      0.397170000000     0.805680000000     0.459040000000     0.0721061  
C100     C      0.410360000000     0.772290000000     0.508450000000    -0.0944612  
C101     C      0.374200000000     0.696480000000     0.508730000000    -0.0386438  
C102     C      0.372540000000     0.665210000000     0.508950000000    -0.0329908  
C103     C      0.383560000000     0.718880000000     0.483660000000    -0.0066668  
C104     C      0.383970000000     0.771140000000     0.459930000000    -0.0955711  
C105     C      0.379870000000     0.655750000000     0.484050000000    -0.0171838  
C106     C      0.407910000000     0.621890000000     0.507840000000    -0.108822   
C107     C      0.386610000000     0.677030000000     0.458470000000    -0.0320945  
C108     C      0.418320000000     0.597700000000     0.506700000000     0.077229   
C109     C      0.380900000000     0.578700000000     0.463790000000     0.18325    
C110     C      0.388640000000     0.708350000000     0.458300000000    -0.038013   
C111     C      0.391610000000     0.754190000000     0.484410000000     0.0484872  
C112     C      0.385620000000     0.626310000000     0.485550000000     0.0703733  
C113     C      0.519310000000     0.179390000000     0.440330000000    -0.141321   
C114     C      0.521080000000     0.357580000000     0.500740000000     0.0697834  
C115     C      0.512730000000     0.361110000000     0.449530000000     0.0717594  
C116     C      0.526640000000     0.330050000000     0.500260000000    -0.0952158  
C117     C      0.505020000000     0.257890000000     0.491630000000    -0.0381018  
C118     C      0.503740000000     0.227260000000     0.489550000000    -0.0319981  
C119     C      0.525850000000     0.286060000000     0.472990000000    -0.00672192 
C120     C      0.518440000000     0.333880000000     0.448270000000    -0.0960224  
C121     C      0.523490000000     0.224210000000     0.468920000000    -0.0167089  
C122     C      0.522810000000     0.172080000000     0.492240000000    -0.108519   
C123     C      0.544690000000     0.252510000000     0.450450000000    -0.0322837  
C124     C      0.518820000000     0.140410000000     0.490580000000     0.0770097  
C125     C      0.517200000000     0.147900000000     0.439110000000     0.180106   
C126     C      0.545790000000     0.283200000000     0.452420000000    -0.0387187  
C127     C      0.524580000000     0.317560000000     0.473850000000     0.0491416  
C128     C      0.521820000000     0.191470000000     0.467030000000     0.069938   
C129     C      0.482530000000     0.963230000000     0.795830000000    -0.141421   
C130     C      0.525890000000     0.018740000000     0.614290000000     0.0689068  
C131     C      0.517090000000     0.963050000000     0.620090000000     0.0682911  
C132     C      0.530400000000     0.020540000000     0.644260000000    -0.09235    
C133     C      0.506730000000     0.003300000000     0.706340000000    -0.0381773  
C134     C      0.504220000000     0.000520000000     0.736250000000    -0.0324086  
C135     C      0.528250000000     0.992860000000     0.694500000000    -0.00594494 
C136     C      0.521960000000     0.964200000000     0.650150000000    -0.0927958  
C137     C      0.523560000000     0.987700000000     0.755040000000    -0.0160625  
C138     C      0.546610000000     0.993560000000     0.807210000000    -0.105541   
C139     C      0.546220000000     0.978460000000     0.743370000000    -0.0324523  
C140     C      0.539730000000     0.988930000000     0.836580000000     0.0751081  
C141     C      0.476360000000     0.957130000000     0.825450000000     0.182103   
C142     C      0.548280000000     0.980720000000     0.713310000000    -0.0382873  
C143     C      0.527780000000     0.992860000000     0.662600000000     0.0470097  
C144     C      0.517720000000     0.981760000000     0.786470000000     0.0687934  
C145     C      0.426760000000     0.942570000000     0.294620000000    -0.140175   
C146     C      0.412540000000     0.974570000000     0.105350000000     0.0687193  
C147     C      0.474660000000     0.993070000000     0.118290000000     0.0676137  
C148     C      0.405610000000     0.972790000000     0.134380000000    -0.0926811  
C149     C      0.402340000000     0.949010000000     0.200520000000    -0.0385125  
C150     C      0.400020000000     0.945730000000     0.230590000000    -0.0323365  
C151     C      0.427790000000     0.979440000000     0.186630000000    -0.00598798 
C152     C      0.468840000000     0.992320000000     0.147240000000    -0.0931832  
C153     C      0.422630000000     0.973050000000     0.247110000000    -0.0163777  
C154     C      0.424520000000     0.993930000000     0.294550000000    -0.107216   
C155     C      0.446910000000     0.003870000000     0.232920000000    -0.0317706  
C156     C      0.429920000000     0.992290000000     0.324550000000     0.0756558  
C157     C      0.434300000000     0.942270000000     0.324830000000     0.182449   
C158     C      0.449630000000     0.006960000000     0.203040000000    -0.038417   
C159     C      0.434010000000     0.981730000000     0.155620000000     0.0473923  
C160     C      0.423200000000     0.969120000000     0.279200000000     0.0693728  
C161     C      0.515900000000     0.682640000000     0.960820000000    -0.141169   
C162     C      0.546780000000     0.881610000000     0.928620000000     0.0698257  
C163     C      0.485550000000     0.841290000000     0.936440000000     0.0712524  
C164     C      0.553680000000     0.856110000000     0.922320000000    -0.0925652  
C165     C      0.557050000000     0.788950000000     0.938650000000    -0.0382658  
C166     C      0.556250000000     0.757800000000     0.941380000000    -0.0323923  
C167     C      0.531970000000     0.794200000000     0.919630000000    -0.00610848 
C168     C      0.491200000000     0.815630000000     0.929480000000    -0.0945538  
C169     C      0.530770000000     0.731630000000     0.924800000000    -0.016831   
C170     C      0.523600000000     0.676760000000     0.912290000000    -0.105879   
C171     C      0.508020000000     0.737960000000     0.903860000000    -0.0321103  
C172     C      0.515810000000     0.643540000000     0.920570000000     0.0717856  
C173     C      0.507900000000     0.649160000000     0.969070000000     0.17975    
C174     C      0.508430000000     0.768940000000     0.901440000000    -0.0387223  
C175     C      0.525620000000     0.822670000000     0.922860000000     0.0481141  
C176     C      0.523990000000     0.696690000000     0.932610000000     0.0690695  
C177     C      0.426620000000     0.279620000000     0.034660000000    -0.139257   
C178     C      0.413400000000     0.082630000000     0.014430000000     0.0693523  
C179     C      0.476860000000     0.112520000000     0.024310000000     0.0724032  
C180     C      0.410630000000     0.111020000000     0.019200000000    -0.0907803  
C181     C      0.411830000000     0.175440000000     0.033990000000    -0.0382771  
C182     C      0.411740000000     0.206350000000     0.031610000000    -0.032331   
C183     C      0.441750000000     0.173710000000     0.025660000000    -0.00529918 
C184     C      0.474890000000     0.140530000000     0.030410000000    -0.0934967  
C185     C      0.441580000000     0.236140000000     0.020880000000    -0.0159157  
C186     C      0.455470000000     0.289450000000     0.990470000000    -0.107642   
C187     C      0.471770000000     0.234430000000     0.013510000000    -0.0324054  
C188     C      0.457420000000     0.320840000000     0.985890000000     0.0728554  
C189     C      0.427130000000     0.310970000000     0.028880000000     0.177899   
C190     C      0.471690000000     0.203800000000     0.015490000000    -0.0379668  
C191     C      0.441990000000     0.141060000000     0.026010000000     0.0470615  
C192     C      0.441170000000     0.268790000000     0.015520000000     0.0670488  
C193     C      0.780330000000     0.310970000000     0.420590000000    -0.143707   
C194     C      0.651730000000     0.097500000000     0.487210000000     0.0703838  
C195     C      0.622960000000     0.125710000000     0.502200000000     0.0681424  
C196     C      0.681960000000     0.128070000000     0.479760000000    -0.0926884  
C197     C      0.725000000000     0.190750000000     0.441930000000    -0.038386   
C198     C      0.750390000000     0.221000000000     0.428130000000    -0.0330694  
C199     C      0.710140000000     0.190460000000     0.467660000000    -0.00560159 
C200     C      0.652490000000     0.156910000000     0.494210000000    -0.0916531  
C201     C      0.760860000000     0.251630000000     0.439410000000    -0.0164917  
C202     C      0.821260000000     0.289290000000     0.418340000000    -0.106233   
C203     C      0.746320000000     0.251480000000     0.465110000000    -0.0320617  
C204     C      0.849090000000     0.322270000000     0.412590000000     0.072224   
C205     C      0.808430000000     0.343470000000     0.413770000000     0.181808   
C206     C      0.721430000000     0.221260000000     0.479180000000    -0.0384631  
C207     C      0.681700000000     0.158290000000     0.481380000000     0.046486   
C208     C      0.787490000000     0.284010000000     0.425170000000     0.0686141  
C209     C      0.110320000000     0.668040000000     0.510780000000    -0.139759   
C210     C      0.317460000000     0.829590000000     0.435350000000     0.0717369  
C211     C      0.290420000000     0.857860000000     0.453170000000     0.0726295  
C212     C      0.286440000000     0.798600000000     0.440790000000    -0.0934193  
C213     C      0.236770000000     0.744230000000     0.485250000000    -0.0382223  
C214     C      0.209590000000     0.715030000000     0.498690000000    -0.0320623  
C215     C      0.227970000000     0.765170000000     0.465430000000    -0.00567366 
C216     C      0.258740000000     0.827560000000     0.458090000000    -0.0934075  
C217     C      0.172830000000     0.705620000000     0.492160000000    -0.0158385  
C218     C      0.149420000000     0.644630000000     0.507960000000    -0.107394   
C219     C      0.164090000000     0.726890000000     0.472460000000    -0.0319776  
C220     C      0.120910000000     0.612880000000     0.514960000000     0.0748267  
C221     C      0.082040000000     0.635550000000     0.518730000000     0.181092   
C222     C      0.191450000000     0.756570000000     0.459440000000    -0.0386463  
C223     C      0.257340000000     0.797410000000     0.453440000000     0.0488399  
C224     C      0.143890000000     0.672540000000     0.504040000000     0.0679091  
C225     C      0.637800000000     0.488240000000     0.429510000000    -0.141967   
C226     C      0.858040000000     0.545170000000     0.496910000000     0.0700668  
C227     C      0.816600000000     0.486740000000     0.502920000000     0.0739459  
C228     C      0.829100000000     0.552270000000     0.492300000000    -0.0917904  
C229     C      0.763230000000     0.550970000000     0.455830000000    -0.0375298  
C230     C      0.731400000000     0.548980000000     0.441760000000    -0.0327074  
C231     C      0.761720000000     0.530640000000     0.481530000000    -0.00579009 
C232     C      0.787450000000     0.492850000000     0.499150000000    -0.0934599  
C233     C      0.697660000000     0.526360000000     0.453000000000    -0.0162526  
C234     C      0.655460000000     0.546810000000     0.429530000000    -0.106899   
C235     C      0.696380000000     0.507900000000     0.479630000000    -0.032102   
C236     C      0.620550000000     0.539510000000     0.418900000000     0.0755991  
C237     C      0.603460000000     0.481890000000     0.417350000000     0.181901   
C238     C      0.728090000000     0.510320000000     0.493920000000    -0.0385314  
C239     C      0.793240000000     0.525700000000     0.492240000000     0.0481319  
C240     C      0.663430000000     0.520600000000     0.436830000000     0.0707884  
C241     C      0.145780000000     0.479230000000     0.459080000000    -0.141089   
C242     C      0.345930000000     0.502070000000     0.544140000000     0.0688904  
C243     C      0.315490000000     0.442860000000     0.542880000000     0.0723073  
C244     C      0.312520000000     0.501750000000     0.542940000000    -0.0901933  
C245     C      0.243300000000     0.497670000000     0.513330000000    -0.038545   
C246     C      0.210690000000     0.494290000000     0.499820000000    -0.0318938  
C247     C      0.244420000000     0.470550000000     0.530450000000    -0.00440208 
C248     C      0.282030000000     0.441590000000     0.541460000000    -0.0918571  
C249     C      0.178240000000     0.463230000000     0.501890000000    -0.014534   
C250     C      0.109860000000     0.431870000000     0.491610000000    -0.102404   
C251     C      0.179130000000     0.436890000000     0.520590000000    -0.0315764  
C252     C      0.078760000000     0.428090000000     0.475150000000     0.0778471  
C253     C      0.114020000000     0.475740000000     0.443450000000     0.179518   
C254     C      0.211350000000     0.440820000000     0.535170000000    -0.0382414  
C255     C      0.279860000000     0.471390000000     0.539620000000     0.0459827  
C256     C      0.144220000000     0.458200000000     0.484230000000     0.0668727  
C257     C      0.976580000000     0.472250000000     0.795490000000    -0.141718   
C258     C      0.959480000000     0.523200000000     0.607290000000     0.0692733  
C259     C      0.963550000000     0.473190000000     0.619760000000     0.0722417  
C260     C      0.959450000000     0.527030000000     0.636650000000    -0.0941489  
C261     C      0.933470000000     0.501950000000     0.702230000000    -0.0383625  
C262     C      0.932960000000     0.498150000000     0.732470000000    -0.0322312  
C263     C      0.963980000000     0.507020000000     0.688840000000    -0.00649803 
C264     C      0.964240000000     0.476600000000     0.649000000000    -0.096263   
C265     C      0.962980000000     0.499420000000     0.749570000000    -0.0159932  
C266     C      0.947250000000     0.505120000000     0.798090000000    -0.10628    
C267     C      0.994260000000     0.506740000000     0.735930000000    -0.0332563  
C268     C      0.948680000000     0.499360000000     0.828160000000     0.0743682  
C269     C      0.979720000000     0.468300000000     0.825820000000     0.18157    
C270     C      0.994640000000     0.510240000000     0.705880000000    -0.0398415  
C271     C      0.962270000000     0.503680000000     0.657670000000     0.0490466  
C272     C      0.961630000000     0.491790000000     0.781430000000     0.0690702  
C273     C      0.039360000000     0.460670000000     0.153140000000    -0.141797   
C274     C      0.988570000000     0.487110000000     0.325250000000     0.070731   
C275     C      0.990080000000     0.435950000000     0.337750000000     0.0702912  
C276     C      0.996680000000     0.487890000000     0.297060000000    -0.096349   
C277     C      0.034820000000     0.495900000000     0.244480000000    -0.0389255  
C278     C      0.039520000000     0.498880000000     0.214970000000    -0.0314576  
C279     C      0.012040000000     0.464430000000     0.258740000000    -0.00443751 
C280     C      0.998590000000     0.436120000000     0.309480000000    -0.0960854  
C281     C      0.022240000000     0.470400000000     0.199200000000    -0.0182273  
C282     C      0.009880000000     0.494190000000     0.151370000000    -0.106562   
C283     C      0.001560000000     0.438560000000     0.213610000000    -0.0281036  
C284     C      0.010440000000     0.497900000000     0.121370000000     0.076396   
C285     C      0.041930000000     0.466650000000     0.122900000000     0.181021   
C286     C      0.996330000000     0.435590000000     0.243200000000    -0.0420271  
C287     C      0.002510000000     0.462640000000     0.288870000000     0.05088    
C288     C      0.023400000000     0.474600000000     0.167420000000     0.0703076  
C289     C      0.844380000000     0.292830000000     0.897150000000    -0.138127   
C290     C      0.625540000000     0.124800000000     0.917810000000     0.0685832  
C291     C      0.647400000000     0.086190000000     0.917160000000     0.0675795  
C292     C      0.659720000000     0.151880000000     0.912190000000    -0.0937337  
C293     C      0.754250000000     0.176290000000     0.927670000000    -0.0383923  
C294     C      0.787250000000     0.206130000000     0.929990000000    -0.0329422  
C295     C      0.726150000000     0.175450000000     0.908200000000    -0.00604352 
C296     C      0.682330000000     0.112910000000     0.912130000000    -0.0922273  
C297     C      0.793020000000     0.235640000000     0.912650000000    -0.0157503  
C298     C      0.832560000000     0.277880000000     0.947480000000    -0.106156   
C299     C      0.765910000000     0.234060000000     0.891680000000    -0.0325581  
C300     C      0.858570000000     0.310450000000     0.953380000000     0.0760397  
C301     C      0.870500000000     0.325970000000     0.903450000000     0.177795   
C302     C      0.732760000000     0.204350000000     0.889600000000    -0.0386523  
C303     C      0.688890000000     0.146270000000     0.910030000000     0.0466112  
C304     C      0.824630000000     0.268800000000     0.919120000000     0.067346   
C305     C      0.297600000000     0.809130000000     0.042730000000    -0.139673   
C306     C      0.088070000000     0.629480000000     0.039090000000     0.0642459  
C307     C      0.117140000000     0.638960000000     0.995660000000     0.0662055  
C308     C      0.112480000000     0.662690000000     0.045810000000    -0.0926921  
C309     C      0.190300000000     0.725050000000     0.057580000000    -0.0384348  
C310     C      0.221790000000     0.756230000000     0.059810000000    -0.0328564  
C311     C      0.166740000000     0.719210000000     0.032790000000    -0.00649437 
C312     C      0.141080000000     0.672120000000     0.001310000000    -0.094561   
C313     C      0.230040000000     0.782200000000     0.037410000000    -0.015519   
C314     C      0.270900000000     0.844630000000     0.027570000000    -0.104776   
C315     C      0.204800000000     0.777140000000     0.013810000000    -0.0325651  
C316     C      0.305530000000     0.871820000000     0.023080000000     0.0760921  
C317     C      0.332180000000     0.836880000000     0.038500000000     0.180682   
C318     C      0.173610000000     0.745920000000     0.011460000000    -0.0386078  
C319     C      0.139190000000     0.684370000000     0.026610000000     0.0464491  
C320     C      0.266550000000     0.812570000000     0.036590000000     0.0677026  
C321     C      0.627320000000     0.414000000000     0.973440000000    -0.138468   
C322     C      0.862510000000     0.492420000000     0.030280000000     0.070641   
C323     C      0.835740000000     0.433300000000     0.040910000000     0.0745305  
C324     C      0.828390000000     0.489620000000     0.022750000000    -0.0926403  
C325     C      0.760940000000     0.469850000000     0.982400000000    -0.0378239  
C326     C      0.727890000000     0.465190000000     0.969060000000    -0.0326216  
C327     C      0.762260000000     0.453340000000     0.009650000000    -0.00545243 
C328     C      0.801260000000     0.429640000000     0.033970000000    -0.0926555  
C329     C      0.695320000000     0.444150000000     0.982760000000    -0.0156353  
C330     C      0.661370000000     0.473190000000     0.959400000000    -0.106729   
C331     C      0.696590000000     0.426970000000     0.009740000000    -0.0317193  
C332     C      0.629130000000     0.474200000000     0.954020000000     0.0802941  
C333     C      0.594740000000     0.415540000000     0.968020000000     0.179741   
C334     C      0.729690000000     0.431390000000     0.022970000000    -0.038438   
C335     C      0.797500000000     0.457730000000     0.023100000000     0.0487368  
C336     C      0.660940000000     0.443330000000     0.970770000000     0.0686465  
C337     C      0.144410000000     0.480940000000     0.924670000000    -0.141759   
C338     C      0.363840000000     0.547660000000     0.996520000000     0.0703144  
C339     C      0.324150000000     0.488720000000     0.998720000000     0.072239   
C340     C      0.334100000000     0.553570000000     0.991650000000    -0.0924312  
C341     C      0.268560000000     0.550050000000     0.952470000000    -0.037943   
C342     C      0.236600000000     0.546270000000     0.937260000000    -0.0332367  
C343     C      0.267020000000     0.530240000000     0.978480000000    -0.00632783 
C344     C      0.294190000000     0.493580000000     0.994890000000    -0.0948134  
C345     C      0.202800000000     0.522420000000     0.947760000000    -0.0157469  
C346     C      0.159820000000     0.539320000000     0.919600000000    -0.104469   
C347     C      0.201400000000     0.504760000000     0.974860000000    -0.0322823  
C348     C      0.124870000000     0.530030000000     0.907740000000     0.0728373  
C349     C      0.110070000000     0.472550000000     0.911320000000     0.180252   
C350     C      0.233190000000     0.508850000000     0.990190000000    -0.0392903  
C351     C      0.298840000000     0.526190000000     0.989730000000     0.0480117  
C352     C      0.168770000000     0.514320000000     0.930230000000     0.0710913  
C353     C      0.773540000000     0.840280000000     0.545500000000    -0.13859    
C354     C      0.612660000000     0.632010000000     0.524800000000     0.0709726  
C355     C      0.565640000000     0.640460000000     0.538170000000     0.067439   
C356     C      0.638390000000     0.664840000000     0.530200000000    -0.0956515  
C357     C      0.659060000000     0.744490000000     0.514080000000    -0.0383509  
C358     C      0.690730000000     0.775520000000     0.510750000000    -0.0332319  
C359     C      0.654940000000     0.722740000000     0.539160000000    -0.00694057 
C360     C      0.590890000000     0.674180000000     0.543030000000    -0.0924171  
C361     C      0.718740000000     0.785570000000     0.532590000000    -0.0157978  
C362     C      0.772620000000     0.815750000000     0.502700000000    -0.104923   
C363     C      0.713440000000     0.764880000000     0.558570000000    -0.0327372  
C364     C      0.807780000000     0.841470000000     0.498040000000     0.0731557  
C365     C      0.809300000000     0.866200000000     0.540510000000     0.179496   
C366     C      0.681980000000     0.733520000000     0.561680000000    -0.0385938  
C367     C      0.627610000000     0.686650000000     0.538490000000     0.0474599  
C368     C      0.755050000000     0.814800000000     0.526610000000     0.066731   
C369     C      0.188070000000     0.118260000000     0.422180000000    -0.138168   
C370     C      0.329810000000     0.333710000000     0.430910000000     0.0674124  
C371     C      0.376940000000     0.327850000000     0.414120000000     0.0676295  
C372     C      0.304280000000     0.301630000000     0.423460000000    -0.0922476  
C373     C      0.255510000000     0.239800000000     0.390530000000    -0.0387916  
C374     C      0.225040000000     0.207820000000     0.392210000000    -0.0323478  
C375     C      0.287470000000     0.246120000000     0.407250000000    -0.00563325 
C376     C      0.351910000000     0.294800000000     0.407180000000    -0.0914498  
C377     C      0.225620000000     0.181430000000     0.410930000000    -0.0154338  
C378     C      0.160950000000     0.153240000000     0.423330000000    -0.10625    
C379     C      0.258630000000     0.187000000000     0.425700000000    -0.0317799  
C380     C      0.129380000000     0.125030000000     0.432510000000     0.0776813  
C381     C      0.155960000000     0.089840000000     0.432120000000     0.181591   
C382     C      0.289330000000     0.219100000000     0.423840000000    -0.0382019  
C383     C      0.315130000000     0.281420000000     0.412060000000     0.0464499  
C384     C      0.190950000000     0.150320000000     0.418100000000     0.0682612  
C385     C      0.787800000000     0.986660000000     0.407430000000    -0.14107    
C386     C      0.549300000000     0.912620000000     0.409620000000     0.0600303  
C387     C      0.573820000000     0.966590000000     0.384070000000     0.0700128  
C388     C      0.582710000000     0.913200000000     0.410050000000    -0.0944859  
C389     C      0.657410000000     0.919400000000     0.407220000000    -0.0387662  
C390     C      0.692760000000     0.924700000000     0.413990000000    -0.0325951  
C391     C      0.650360000000     0.946760000000     0.403250000000    -0.00509145 
C392     C      0.606830000000     0.967370000000     0.382960000000    -0.0913252  
C393     C      0.721810000000     0.957460000000     0.416340000000    -0.0162186  
C394     C      0.766810000000     0.948660000000     0.450060000000    -0.105621   
C395     C      0.715000000000     0.984730000000     0.412030000000    -0.0319736  
C396     C      0.802530000000     0.956690000000     0.458400000000     0.0748235  
C397     C      0.823720000000     0.994730000000     0.416310000000     0.180893   
C398     C      0.679800000000     0.979470000000     0.405950000000    -0.0386494  
C399     C      0.612680000000     0.941760000000     0.397970000000     0.0444725  
C400     C      0.759160000000     0.963570000000     0.424290000000     0.068639   
C401     C      0.349560000000     0.006720000000     0.572660000000    -0.14071    
C402     C      0.147600000000     0.991650000000     0.492480000000     0.0670061  
C403     C      0.141840000000     0.002350000000     0.539520000000     0.0705355  
C404     C      0.183540000000     0.999460000000     0.499560000000    -0.0947808  
C405     C      0.262560000000     0.045870000000     0.547480000000    -0.0381016  
C406     C      0.298140000000     0.051820000000     0.554560000000    -0.0336534  
C407     C      0.236660000000     0.016000000000     0.535240000000    -0.00701139 
C408     C      0.177970000000     0.010930000000     0.547140000000    -0.0940602  
C409     C      0.307840000000     0.027530000000     0.550210000000    -0.0150797  
C410     C      0.374680000000     0.059300000000     0.543100000000    -0.105115   
C411     C      0.281750000000     0.997680000000     0.538170000000    -0.0336219  
C412     C      0.405820000000     0.056550000000     0.540990000000     0.0740051  
C413     C      0.380640000000     0.004350000000     0.569790000000     0.185146   
C414     C      0.246690000000     0.992070000000     0.530630000000    -0.0377279  
C415     C      0.199130000000     0.009340000000     0.527090000000     0.0481478  
C416     C      0.345030000000     0.032620000000     0.556970000000     0.06784    
C417     C      0.046550000000     0.850600000000     0.427290000000    -0.138286   
C418     C      0.991620000000     0.639400000000     0.462920000000     0.0707638  
C419     C      0.993330000000     0.635790000000     0.412950000000     0.0661363  
C420     C      0.999700000000     0.672990000000     0.457750000000    -0.0968163  
C421     C      0.035480000000     0.748260000000     0.443080000000    -0.0381798  
C422     C      0.038560000000     0.780330000000     0.440520000000    -0.0327972  
C423     C      0.011910000000     0.724050000000     0.424060000000    -0.00531751 
C424     C      0.001140000000     0.669440000000     0.406970000000    -0.0906418  
C425     C      0.018110000000     0.789020000000     0.418870000000    -0.0142374  
C426     C      0.982490000000     0.819400000000     0.416750000000    -0.10663    
C427     C      0.996250000000     0.765500000000     0.398730000000    -0.0339627  
C428     C      0.979490000000     0.846910000000     0.422760000000     0.0736182  
C429     C      0.042970000000     0.878020000000     0.434150000000     0.178438   
C430     C      0.993240000000     0.733400000000     0.401260000000    -0.0390427  
C431     C      0.004600000000     0.688520000000     0.429550000000     0.0482334  
C432     C      0.016070000000     0.820520000000     0.419790000000     0.0681738  
C433     C      0.920420000000     0.273020000000     0.493510000000    -0.14238    
C434     C      0.976830000000     0.112020000000     0.535260000000     0.0688792  
C435     C      0.914370000000     0.082140000000     0.521390000000     0.0685917  
C436     C      0.974060000000     0.140220000000     0.539420000000    -0.0915014  
C437     C      0.972090000000     0.204160000000     0.523140000000    -0.0378979  
C438     C      0.971720000000     0.234710000000     0.520390000000    -0.0321751  
C439     C      0.940770000000     0.173460000000     0.530290000000    -0.00509442 
C440     C      0.910930000000     0.110700000000     0.524070000000    -0.0901911  
C441     C      0.939860000000     0.235440000000     0.523920000000    -0.0166948  
C442     C      0.958350000000     0.293470000000     0.536480000000    -0.10755    
C443     C      0.908420000000     0.205180000000     0.530930000000    -0.032503   
C444     C      0.959040000000     0.324400000000     0.529540000000     0.076492   
C445     C      0.921150000000     0.304190000000     0.487050000000     0.185236   
C446     C      0.908950000000     0.174500000000     0.534410000000    -0.0380976  
C447     C      0.941500000000     0.140850000000     0.531970000000     0.0460276  
C448     C      0.939180000000     0.267620000000     0.518180000000     0.0704931  
C449     C      0.933840000000     0.927580000000     0.652190000000    -0.141336   
C450     C      0.928940000000     0.977160000000     0.828890000000     0.0684145  
C451     C      0.928640000000     0.924850000000     0.835070000000     0.0682137  
C452     C      0.923280000000     0.975240000000     0.799010000000    -0.0929829  
C453     C      0.936890000000     0.978060000000     0.736710000000    -0.0380057  
C454     C      0.936310000000     0.977820000000     0.706760000000    -0.0325973  
C455     C      0.919640000000     0.947750000000     0.754410000000    -0.00563934 
C456     C      0.923800000000     0.922490000000     0.805120000000    -0.0917199  
C457     C      0.919100000000     0.947290000000     0.693760000000    -0.0160182  
C458     C      0.911810000000     0.967390000000     0.642310000000    -0.106552   
C459     C      0.901590000000     0.916970000000     0.711170000000    -0.0326633  
C460     C      0.916600000000     0.968810000000     0.612950000000     0.0736164  
C461     C      0.938120000000     0.929080000000     0.622510000000     0.180703   
C462     C      0.901560000000     0.917190000000     0.741130000000    -0.038027   
C463     C      0.921720000000     0.948200000000     0.786540000000     0.0465784  
C464     C      0.921250000000     0.947210000000     0.662300000000     0.068446   
C465     C      0.001670000000     0.967740000000     0.157510000000    -0.136813   
C466     C      0.042240000000     0.993850000000     0.341200000000     0.0704313  
C467     C      0.992990000000     0.004310000000     0.327610000000     0.0698544  
C468     C      0.049460000000     0.996790000000     0.312060000000    -0.093044   
C469     C      0.037160000000     0.980070000000     0.248310000000    -0.0377174  
C470     C      0.036740000000     0.978810000000     0.218450000000    -0.032948   
C471     C      0.033590000000     0.005530000000     0.259160000000    -0.00649319 
C472     C      0.999770000000     0.007860000000     0.298480000000    -0.0962834  
C473     C      0.033120000000     0.003150000000     0.198880000000    -0.0146712  
C474     C      0.043200000000     0.026380000000     0.146900000000    -0.105037   
C475     C      0.031780000000     0.029740000000     0.209830000000    -0.0327675  
C476     C      0.034770000000     0.022030000000     0.117400000000     0.0761619  
C477     C      0.991950000000     0.964280000000     0.127860000000     0.179159   
C478     C      0.031880000000     0.030830000000     0.239650000000    -0.0375845  
C479     C      0.028060000000     0.003880000000     0.290330000000     0.0497086  
C480     C      0.026940000000     0.998960000000     0.167320000000     0.067317   
C481     C      0.655510000000     0.646980000000     0.031960000000    -0.140898   
C482     C      0.796550000000     0.853530000000     0.957220000000     0.0719793  
C483     C      0.825600000000     0.823400000000     0.946960000000     0.0685714  
C484     C      0.765170000000     0.823530000000     0.963950000000    -0.0934466  
C485     C      0.699070000000     0.750810000000     0.967920000000    -0.0384803  
C486     C      0.671160000000     0.722490000000     0.981950000000    -0.0323967  
C487     C      0.735280000000     0.761910000000     0.977670000000    -0.00594475 
C488     C      0.794950000000     0.792820000000     0.954460000000    -0.093128   
C489     C      0.678820000000     0.705150000000     0.006510000000    -0.0150587  
C490     C      0.613890000000     0.668560000000     0.020200000000    -0.104602   
C491     C      0.715250000000     0.717100000000     0.016560000000    -0.0321654  
C492     C      0.585390000000     0.636490000000     0.027610000000     0.0736352  
C493     C      0.626480000000     0.615400000000     0.040200000000     0.181641   
C494     C      0.743120000000     0.744870000000     0.002100000000    -0.0382379  
C495     C      0.764910000000     0.792890000000     0.964150000000     0.0479285  
C496     C      0.649210000000     0.673500000000     0.020150000000     0.0667709  
C497     C      0.164540000000     0.153300000000     0.005330000000    -0.140554   
C498     C      0.370680000000     0.320980000000     0.937260000000     0.0698183  
C499     C      0.327670000000     0.340110000000     0.934250000000     0.0695235  
C500     C      0.343140000000     0.287550000000     0.942340000000    -0.091329   
C501     C      0.285760000000     0.225550000000     0.975670000000    -0.0378418  
C502     C      0.257700000000     0.195300000000     0.987340000000    -0.0329712  
C503     C      0.278100000000     0.246380000000     0.954490000000    -0.00578067 
C504     C      0.299770000000     0.307380000000     0.939270000000    -0.0942481  
C505     C      0.221480000000     0.185680000000     0.978540000000    -0.0159798  
C506     C      0.189170000000     0.123260000000     0.985770000000    -0.106056   
C507     C      0.213730000000     0.205890000000     0.957070000000    -0.032469   
C508     C      0.158050000000     0.093260000000     0.992790000000     0.0764516  
C509     C      0.134470000000     0.122420000000     0.014120000000     0.181191   
C510     C      0.241690000000     0.235620000000     0.944880000000    -0.0379968  
C511     C      0.307270000000     0.280550000000     0.944560000000     0.0469634  
C512     C      0.191570000000     0.153710000000     0.990400000000     0.0692066  
C513     C      0.875230000000     0.062470000000     0.030800000000    -0.137977   
C514     C      0.641260000000     0.999090000000     0.036830000000     0.0692794  
C515     C      0.654510000000     0.007820000000     0.987390000000     0.0693062  
C516     C      0.676880000000     0.006780000000     0.045380000000    -0.0935201  
C517     C      0.745710000000     0.996370000000     0.044560000000    -0.0384277  
C518     C      0.781070000000     0.002080000000     0.050840000000    -0.0316319  
C519     C      0.739260000000     0.022830000000     0.033130000000    -0.00628066 
C520     C      0.690580000000     0.016410000000     0.995240000000    -0.0936295  
C521     C      0.810960000000     0.034630000000     0.046430000000    -0.0147977  
C522     C      0.856840000000     0.017470000000     0.068620000000    -0.103902   
C523     C      0.804090000000     0.061410000000     0.036090000000    -0.0325531  
C524     C      0.887430000000     0.014820000000     0.064990000000     0.0813723  
C525     C      0.906640000000     0.060130000000     0.028250000000     0.176781   
C526     C      0.768580000000     0.055460000000     0.029190000000    -0.0387017  
C527     C      0.701910000000     0.015840000000     0.024480000000     0.0480241  
C528     C      0.848620000000     0.039330000000     0.049590000000     0.0672643  
C529     C      0.101150000000     0.929610000000     0.885480000000    -0.140416   
C530     C      0.302780000000     0.931660000000     0.911720000000     0.0670984  
C531     C      0.295600000000     0.943750000000     0.957710000000     0.0688352  
C532     C      0.265790000000     0.918770000000     0.904550000000    -0.0919288  
C533     C      0.177870000000     0.891590000000     0.936970000000    -0.038144   
C534     C      0.142520000000     0.886100000000     0.930460000000    -0.0320763  
C535     C      0.204080000000     0.907570000000     0.916110000000    -0.00553704 
C536     C      0.258510000000     0.931310000000     0.951130000000    -0.092457   
C537     C      0.132510000000     0.896330000000     0.902890000000    -0.0150291  
C538     C      0.066730000000     0.875500000000     0.911240000000    -0.105228   
C539     C      0.157780000000     0.909440000000     0.881310000000    -0.0323511  
C540     C      0.039570000000     0.883830000000     0.913880000000     0.0753937  
C541     C      0.073880000000     0.937460000000     0.888740000000     0.185032   
C542     C      0.193170000000     0.915190000000     0.887870000000    -0.0378566  
C543     C      0.243080000000     0.918700000000     0.924210000000     0.0464478  
C544     C      0.099020000000     0.899500000000     0.898600000000     0.0682533  
C545     C      0.950380000000     0.632600000000     0.007550000000    -0.14297    
C546     C      0.911120000000     0.802130000000     0.971610000000     0.0708613  
C547     C      0.943530000000     0.807390000000     0.017120000000     0.0687354  
C548     C      0.901460000000     0.768290000000     0.972690000000    -0.0948383  
C549     C      0.912600000000     0.710000000000     0.967220000000    -0.0378093  
C550     C      0.913460000000     0.680220000000     0.965720000000    -0.0322829  
C551     C      0.910710000000     0.720010000000     0.994030000000    -0.00647277 
C552     C      0.935260000000     0.773670000000     0.018480000000    -0.0935479  
C553     C      0.912980000000     0.659970000000     0.991010000000    -0.0168433  
C554     C      0.905840000000     0.610200000000     0.968360000000    -0.108577   
C555     C      0.909260000000     0.668890000000     0.017680000000    -0.0328999  
C556     C      0.918180000000     0.587650000000     0.965370000000     0.0775899  
C557     C      0.963850000000     0.611180000000     0.003060000000     0.184745   
C558     C      0.907910000000     0.698570000000     0.019170000000    -0.0384152  
C559     C      0.914850000000     0.753960000000     0.995620000000     0.0476905  
C560     C      0.921800000000     0.632730000000     0.989800000000     0.0705562  
C561     C      0.024320000000     0.174910000000     0.935400000000    -0.141242   
C562     C      0.052380000000     0.362080000000     0.988470000000     0.0711995  
C563     C      0.023550000000     0.352480000000     0.941470000000     0.0715533  
C564     C      0.063080000000     0.338070000000     0.986590000000    -0.0951164  
C565     C      0.054400000000     0.268910000000     0.986300000000    -0.037737   
C566     C      0.053940000000     0.238500000000     0.984890000000    -0.0325855  
C567     C      0.058790000000     0.290860000000     0.961270000000    -0.00669343 
C568     C      0.033340000000     0.328010000000     0.939050000000    -0.0947756  
C569     C      0.057540000000     0.229190000000     0.958390000000    -0.0165075  
C570     C      0.063350000000     0.178800000000     0.977800000000    -0.107697   
C571     C      0.064050000000     0.251860000000     0.933670000000    -0.0331809  
C572     C      0.050250000000     0.144310000000     0.978890000000     0.0771058  
C573     C      0.010160000000     0.139790000000     0.937550000000     0.180705   
C574     C      0.064960000000     0.282570000000     0.935140000000    -0.0384743  
C575     C      0.052770000000     0.320060000000     0.961970000000     0.0483548  
C576     C      0.049840000000     0.194320000000     0.956290000000     0.0694787  
H1       H      0.007610000000     0.979760000000     0.911420000000     0.191802   
H2       H      0.944630000000     0.026980000000     0.973960000000     0.196634   
H3       H      0.912480000000     0.896190000000     0.996050000000     0.197427   
H4       H      0.048230000000     0.992350000000     0.026760000000     0.197503   
H5       H      0.905450000000     0.007590000000     0.909000000000     0.143048   
H6       H      0.869760000000     0.996350000000     0.966200000000     0.196081   
H7       H      0.878370000000     0.915190000000     0.039490000000     0.127241   
H8       H      0.916760000000     0.883520000000     0.059800000000     0.184214   
H9       H      0.035610000000     0.911240000000     0.030290000000     0.14294    
H10      H      0.086380000000     0.950230000000     0.986220000000     0.201255   
H11      H      0.081310000000     0.030720000000     0.914850000000     0.125101   
H12      H      0.033950000000     0.046610000000     0.886160000000     0.184387   
H13      H      0.952330000000     0.881080000000     0.076790000000     0.201567   
H14      H      0.102920000000     0.981950000000     0.007610000000     0.197441   
H15      H      0.010320000000     0.067370000000     0.879180000000     0.203258   
H16      H      0.848170000000     0.960830000000     0.949320000000     0.201399   
H17      H      0.888700000000     0.934450000000     0.456370000000     0.19906    
H18      H      0.018110000000     0.037560000000     0.422360000000     0.20231    
H19      H      0.988910000000     0.019800000000     0.536350000000     0.19333    
H20      H      0.010950000000     0.926780000000     0.493240000000     0.196932   
H21      H      0.932840000000     0.031740000000     0.378560000000     0.140236   
H22      H      0.992290000000     0.092440000000     0.438990000000     0.204661   
H23      H      0.070310000000     0.073900000000     0.525070000000     0.133296   
H24      H      0.047160000000     0.026180000000     0.570220000000     0.186541   
H25      H      0.985670000000     0.902750000000     0.552870000000     0.131018   
H26      H      0.942180000000     0.848520000000     0.500540000000     0.201021   
H27      H      0.905100000000     0.885070000000     0.419320000000     0.13658    
H28      H      0.883760000000     0.929520000000     0.394650000000     0.189533   
H29      H      0.058440000000     0.996540000000     0.583190000000     0.203004   
H30      H      0.925580000000     0.859790000000     0.525430000000     0.19534    
H31      H      0.899290000000     0.961600000000     0.368980000000     0.196333   
H32      H      0.037280000000     0.115110000000     0.444450000000     0.202455   
H33      H      0.958820000000     0.443350000000     0.042260000000     0.199977   
H34      H      0.913340000000     0.435830000000     0.927450000000     0.187693   
H35      H      0.013540000000     0.558310000000     0.963950000000     0.19396    
H36      H      0.054680000000     0.463040000000     0.964810000000     0.208376   
H37      H      0.852420000000     0.410020000000     0.952960000000     0.134002   
H38      H      0.875100000000     0.485420000000     0.933040000000     0.203688   
H39      H      0.994040000000     0.570050000000     0.903390000000     0.128754   
H40      H      0.086350000000     0.587330000000     0.918360000000     0.191181   
H41      H      0.126520000000     0.545450000000     0.983940000000     0.137106   
H42      H      0.095600000000     0.483070000000     0.032300000000     0.199031   
H43      H      0.968500000000     0.388680000000     0.052180000000     0.12659    
H44      H      0.899880000000     0.363170000000     0.030180000000     0.190413   
H45      H      0.121270000000     0.588250000000     0.939510000000     0.193366   
H46      H      0.084970000000     0.442440000000     0.035350000000     0.200768   
H47      H      0.860840000000     0.364160000000     0.023670000000     0.20096    
H48      H      0.881750000000     0.474700000000     0.902120000000     0.192254   
H49      H      0.908020000000     0.461060000000     0.522250000000     0.196753   
H50      H      0.916760000000     0.449740000000     0.408590000000     0.189135   
H51      H      0.025580000000     0.556910000000     0.459450000000     0.19837    
H52      H      0.010150000000     0.432050000000     0.494710000000     0.20318    
H53      H      0.862170000000     0.459050000000     0.407230000000     0.127903   
H54      H      0.913800000000     0.528210000000     0.389400000000     0.201989   
H55      H      0.044410000000     0.558660000000     0.401010000000     0.129543   
H56      H      0.107450000000     0.556740000000     0.452400000000     0.191735   
H57      H      0.073450000000     0.492750000000     0.533540000000     0.139619   
H58      H      0.018510000000     0.426820000000     0.554000000000     0.196701   
H59      H      0.886800000000     0.380180000000     0.534880000000     0.139267   
H60      H      0.841530000000     0.402240000000     0.510300000000     0.190637   
H61      H      0.120790000000     0.535740000000     0.478360000000     0.200394   
H62      H      0.991720000000     0.422330000000     0.579840000000     0.202906   
H63      H      0.817010000000     0.390640000000     0.479110000000     0.204455   
H64      H      0.922830000000     0.508120000000     0.366630000000     0.194855   
H65      H      0.463450000000     0.927950000000     0.921290000000     0.192358   
H66      H      0.443470000000     0.932340000000     0.033540000000     0.191087   
H67      H      0.563310000000     0.034470000000     0.984680000000     0.196251   
H68      H      0.431590000000     0.023600000000     0.946900000000     0.200271   
H69      H      0.456700000000     0.882930000000     0.036070000000     0.127724   
H70      H      0.529430000000     0.930320000000     0.056300000000     0.202098   
H71      H      0.560590000000     0.050950000000     0.041800000000     0.127606   
H72      H      0.567440000000     0.103690000000     0.996240000000     0.188256   
H73      H      0.505600000000     0.084150000000     0.908060000000     0.140874   
H74      H      0.415460000000     0.024860000000     0.888660000000     0.19749    
H75      H      0.389530000000     0.912890000000     0.893220000000     0.124167   
H76      H      0.385930000000     0.867270000000     0.937120000000     0.18681    
H77      H      0.553420000000     0.123300000000     0.969420000000     0.200166   
H78      H      0.453330000000     0.032970000000     0.873740000000     0.200978   
H79      H      0.395660000000     0.840650000000     0.959240000000     0.202055   
H80      H      0.503310000000     0.935680000000     0.077140000000     0.19554    
H81      H      0.400060000000     0.960230000000     0.423640000000     0.196851   
H82      H      0.444140000000     0.965580000000     0.538520000000     0.193028   
H83      H      0.504330000000     0.922330000000     0.468690000000     0.196118   
H84      H      0.536670000000     0.054830000000     0.454030000000     0.194562   
H85      H      0.368790000000     0.912170000000     0.533500000000     0.126167   
H86      H      0.418010000000     0.893370000000     0.559740000000     0.185324   
H87      H      0.519620000000     0.899670000000     0.519180000000     0.135189   
H88      H      0.583240000000     0.964920000000     0.494950000000     0.20422    
H89      H      0.591590000000     0.039430000000     0.416530000000     0.132285   
H90      H      0.531120000000     0.068290000000     0.390800000000     0.183784   
H91      H      0.412600000000     0.040330000000     0.425100000000     0.143974   
H92      H      0.347470000000     0.970110000000     0.446030000000     0.195921   
H93      H      0.578600000000     0.952250000000     0.461890000000     0.198528   
H94      H      0.495660000000     0.071620000000     0.374690000000     0.200015   
H95      H      0.363250000000     0.998810000000     0.470360000000     0.200454   
H96      H      0.448110000000     0.879540000000     0.567650000000     0.199991   
H97      H      0.410600000000     0.464700000000     0.019550000000     0.192188   
H98      H      0.441540000000     0.460940000000     0.909570000000     0.193795   
H99      H      0.540830000000     0.562110000000     0.973330000000     0.199842   
H100     H      0.516730000000     0.434620000000     0.007030000000     0.200364   
H101     H      0.372740000000     0.453120000000     0.902000000000     0.131418   
H102     H      0.450240000000     0.547570000000     0.887950000000     0.20685    
H103     H      0.571980000000     0.567370000000     0.917890000000     0.12455    
H104     H      0.630550000000     0.548140000000     0.996480000000     0.202819   
H105     H      0.567780000000     0.498510000000     0.056870000000     0.140706   
H106     H      0.501220000000     0.410790000000     0.067560000000     0.20001    
H107     H      0.382160000000     0.392720000000     0.033490000000     0.125254   
H108     H      0.332640000000     0.407990000000     0.982110000000     0.189616   
H109     H      0.614140000000     0.559240000000     0.965260000000     0.186635   
H110     H      0.503030000000     0.442250000000     0.083750000000     0.20252    
H111     H      0.324320000000     0.423060000000     0.949280000000     0.196817   
H112     H      0.453630000000     0.519330000000     0.870760000000     0.199539   
H113     H      0.436470000000     0.449530000000     0.543190000000     0.195998   
H114     H      0.404870000000     0.446370000000     0.426480000000     0.192113   
H115     H      0.499880000000     0.567200000000     0.468810000000     0.196052   
H116     H      0.541900000000     0.471070000000     0.473690000000     0.20806    
H117     H      0.339850000000     0.435040000000     0.458420000000     0.127494   
H118     H      0.365910000000     0.483350000000     0.414730000000     0.182563   
H119     H      0.498840000000     0.573220000000     0.404100000000     0.134177   
H120     H      0.568270000000     0.598000000000     0.429210000000     0.190827   
H121     H      0.615940000000     0.556540000000     0.485260000000     0.138832   
H122     H      0.562800000000     0.445340000000     0.545840000000     0.202665   
H123     H      0.449570000000     0.383470000000     0.541910000000     0.139711   
H124     H      0.379310000000     0.364140000000     0.518810000000     0.199549   
H125     H      0.604940000000     0.599430000000     0.447840000000     0.193058   
H126     H      0.576850000000     0.486530000000     0.538450000000     0.202779   
H127     H      0.375810000000     0.386890000000     0.542490000000     0.19446    
H128     H      0.385840000000     0.521110000000     0.396100000000     0.200996   
H129     H      0.474090000000     0.517660000000     0.614980000000     0.0249021  
H130     H      0.471030000000     0.420330000000     0.854040000000     0.0195442  
H131     H      0.451800000000     0.462660000000     0.707130000000     0.0376273  
H132     H      0.569690000000     0.490790000000     0.760480000000     0.0356843  
H133     H      0.471660000000     0.419930000000     0.802100000000     0.0550327  
H134     H      0.566400000000     0.496840000000     0.707440000000     0.0375323  
H135     H      0.559570000000     0.521570000000     0.798340000000     0.0656495  
H136     H      0.479160000000     0.513630000000     0.667570000000     0.0522003  
H137     H      0.534230000000     0.455890000000     0.666780000000     0.0522858  
H138     H      0.455020000000     0.456260000000     0.760140000000     0.0351989  
H139     H      0.528450000000     0.459810000000     0.614440000000     0.0255113  
H140     H      0.586710000000     0.546400000000     0.842190000000     0.0891725  
H141     H      0.571980000000     0.525210000000     0.876530000000     0.102244   
H142     H      0.473400000000     0.452280000000     0.341640000000     0.0245601  
H143     H      0.484940000000     0.544380000000     0.100500000000     0.021627   
H144     H      0.387960000000     0.475750000000     0.246340000000     0.0370961  
H145     H      0.501130000000     0.513420000000     0.197040000000     0.0357681  
H146     H      0.483680000000     0.547670000000     0.151890000000     0.0553133  
H147     H      0.502720000000     0.509700000000     0.250020000000     0.0379886  
H148     H      0.399470000000     0.444520000000     0.159440000000     0.0651653  
H149     H      0.471490000000     0.457290000000     0.289150000000     0.052297   
H150     H      0.420750000000     0.519190000000     0.287090000000     0.0516821  
H151     H      0.386260000000     0.478880000000     0.193350000000     0.035455   
H152     H      0.423540000000     0.514400000000     0.339600000000     0.0213847  
H153     H      0.373680000000     0.416390000000     0.116920000000     0.088364   
H154     H      0.387350000000     0.435900000000     0.081970000000     0.098127   
H155     H      0.391400000000     0.817780000000     0.439240000000     0.0256637  
H156     H      0.437600000000     0.596970000000     0.523670000000     0.0240727  
H157     H      0.396440000000     0.725060000000     0.438700000000     0.0369414  
H158     H      0.366860000000     0.648950000000     0.528870000000     0.0342091  
H159     H      0.419270000000     0.638500000000     0.525200000000     0.0551136  
H160     H      0.369370000000     0.703540000000     0.528430000000     0.0357221  
H161     H      0.352650000000     0.606310000000     0.447050000000     0.0637601  
H162     H      0.368700000000     0.758010000000     0.441150000000     0.050568   
H163     H      0.417200000000     0.760310000000     0.527780000000     0.0502562  
H164     H      0.392800000000     0.670480000000     0.439080000000     0.036285   
H165     H      0.437760000000     0.820080000000     0.525820000000     0.018108   
H166     H      0.342600000000     0.555860000000     0.429930000000     0.0842327  
H167     H      0.361290000000     0.531080000000     0.447730000000     0.102358   
H168     H      0.507250000000     0.372520000000     0.429150000000     0.024753   
H169     H      0.518000000000     0.126000000000     0.511080000000     0.0264235  
H170     H      0.562190000000     0.304680000000     0.437900000000     0.0357884  
H171     H      0.486670000000     0.205740000000     0.503760000000     0.0351525  
H172     H      0.525980000000     0.181020000000     0.513360000000     0.0551525  
H173     H      0.488810000000     0.259260000000     0.507260000000     0.0374587  
H174     H      0.519960000000     0.194730000000     0.420470000000     0.0635765  
H175     H      0.516500000000     0.324820000000     0.427430000000     0.0512089  
H176     H      0.531840000000     0.318220000000     0.520480000000     0.0512647  
H177     H      0.560620000000     0.251020000000     0.434660000000     0.0339013  
H178     H      0.522150000000     0.366060000000     0.521690000000     0.0211281  
H179     H      0.522920000000     0.155610000000     0.394220000000     0.0838731  
H180     H      0.527980000000     0.121350000000     0.411000000000     0.0978616  
H181     H      0.511610000000     0.939960000000     0.611490000000     0.0234085  
H182     H      0.562850000000     0.000450000000     0.851770000000     0.0245282  
H183     H      0.565190000000     0.972640000000     0.704760000000     0.0377874  
H184     H      0.486630000000     0.007880000000     0.744730000000     0.0366076  
H185     H      0.574290000000     0.007520000000     0.800710000000     0.055515   
H186     H      0.490710000000     0.012440000000     0.692410000000     0.0374787  
H187     H      0.459970000000     0.951960000000     0.780100000000     0.0652057  
H188     H      0.519610000000     0.942180000000     0.663600000000     0.0508934  
H189     H      0.535300000000     0.043330000000     0.653060000000     0.0523028  
H190     H      0.561230000000     0.968320000000     0.757410000000     0.0361462  
H191     H      0.527450000000     0.040610000000     0.601050000000     0.0265941  
H192     H      0.421240000000     0.922490000000     0.818150000000     0.0893925  
H193     H      0.437420000000     0.922730000000     0.854720000000     0.0983523  
H194     H      0.502120000000     0.001080000000     0.112980000000     0.0263609  
H195     H      0.429870000000     0.012000000000     0.335240000000     0.020926   
H196     H      0.469420000000     0.030680000000     0.192780000000     0.0381248  
H197     H      0.381030000000     0.921730000000     0.241000000000     0.0357971  
H198     H      0.421640000000     0.014800000000     0.283370000000     0.0546395  
H199     H      0.385400000000     0.927370000000     0.188320000000     0.0374583  
H200     H      0.427150000000     0.923780000000     0.282840000000     0.0647314  
H201     H      0.491450000000     0.999270000000     0.163130000000     0.0520512  
H202     H      0.378310000000     0.964600000000     0.140150000000     0.052357   
H203     H      0.464950000000     0.025250000000     0.245110000000     0.0354712  
H204     H      0.389810000000     0.967270000000     0.089540000000     0.0261735  
H205     H      0.443420000000     0.901030000000     0.325540000000     0.0885784  
H206     H      0.458420000000     0.921440000000     0.357560000000     0.11039    
H207     H      0.458390000000     0.834230000000     0.941880000000     0.0198076  
H208     H      0.515840000000     0.629430000000     0.903570000000     0.0248819  
H209     H      0.488810000000     0.772430000000     0.886630000000     0.0370995  
H210     H      0.574130000000     0.753460000000     0.957640000000     0.035004   
H211     H      0.529380000000     0.686800000000     0.890040000000     0.0550556  
H212     H      0.575220000000     0.807870000000     0.953080000000     0.0382766  
H213     H      0.515710000000     0.697970000000     0.976690000000     0.0646885  
H214     H      0.468910000000     0.790040000000     0.930470000000     0.0516731  
H215     H      0.580760000000     0.862390000000     0.917420000000     0.0520807  
H216     H      0.488030000000     0.718130000000     0.890950000000     0.0356787  
H217     H      0.569140000000     0.907150000000     0.928320000000     0.0256571  
H218     H      0.501530000000     0.654880000000     0.011680000000     0.0858493  
H219     H      0.499060000000     0.616710000000     0.008780000000     0.111793   
H220     H      0.503320000000     0.114040000000     0.026610000000     0.0214851  
H221     H      0.470290000000     0.335830000000     0.966450000000     0.0226496  
H222     H      0.494980000000     0.203820000000     0.008110000000     0.0362048  
H223     H      0.387930000000     0.206740000000     0.037340000000     0.0341599  
H224     H      0.465710000000     0.281660000000     0.974350000000     0.053825   
H225     H      0.388380000000     0.152950000000     0.042120000000     0.0364962  
H226     H      0.413950000000     0.263360000000     0.053670000000     0.0630348  
H227     H      0.499580000000     0.162230000000     0.037320000000     0.0503019  
H228     H      0.384450000000     0.109920000000     0.015830000000     0.0507083  
H229     H      0.495500000000     0.256850000000     0.005640000000     0.0338477  
H230     H      0.389000000000     0.060480000000     0.007700000000     0.0228197  
H231     H      0.394670000000     0.300970000000     0.063520000000     0.0881374  
H232     H      0.399210000000     0.335550000000     0.039620000000     0.111446   
H233     H      0.599840000000     0.125680000000     0.510070000000     0.0267393  
H234     H      0.875900000000     0.325880000000     0.410200000000     0.0216491  
H235     H      0.711190000000     0.222110000000     0.499130000000     0.0367202  
H236     H      0.761200000000     0.220520000000     0.408320000000     0.0345882  
H237     H      0.827100000000     0.268580000000     0.420090000000     0.0511698  
H238     H      0.716420000000     0.167680000000     0.431940000000     0.0363852  
H239     H      0.753290000000     0.306840000000     0.422960000000     0.0641986  
H240     H      0.651080000000     0.179540000000     0.496240000000     0.0509782  
H241     H      0.704670000000     0.127840000000     0.471460000000     0.0514882  
H242     H      0.754580000000     0.274840000000     0.474550000000     0.0356979  
H243     H      0.652190000000     0.074640000000     0.483960000000     0.0261885  
H244     H      0.773780000000     0.364570000000     0.406210000000     0.0864003  
H245     H      0.819520000000     0.392630000000     0.397940000000     0.0962654  
H246     H      0.291190000000     0.880550000000     0.458680000000     0.0231868  
H247     H      0.126570000000     0.592050000000     0.516160000000     0.0189821  
H248     H      0.184110000000     0.772630000000     0.444450000000     0.0374312  
H249     H      0.217540000000     0.699900000000     0.514290000000     0.0344608  
H250     H      0.174990000000     0.646610000000     0.503740000000     0.0525909  
H251     H      0.264810000000     0.750890000000     0.490890000000     0.0394028  
H252     H      0.106270000000     0.689720000000     0.510330000000     0.0635427  
H253     H      0.236580000000     0.827600000000     0.467570000000     0.0528464  
H254     H      0.285910000000     0.775630000000     0.436510000000     0.0518613  
H255     H      0.136130000000     0.720290000000     0.466590000000     0.0359436  
H256     H      0.340180000000     0.829420000000     0.427000000000     0.0250697  
H257     H      0.048450000000     0.654150000000     0.528570000000     0.0864538  
H258     H      0.032640000000     0.611180000000     0.539770000000     0.107954   
H259     H      0.810610000000     0.460650000000     0.506670000000     0.0199531  
H260     H      0.614790000000     0.560340000000     0.415690000000     0.0138253  
H261     H      0.726040000000     0.494850000000     0.513960000000     0.0362788  
H262     H      0.732940000000     0.563670000000     0.421320000000     0.0355406  
H263     H      0.675200000000     0.572410000000     0.433950000000     0.0517962  
H264     H      0.788620000000     0.566670000000     0.445570000000     0.0378729  
H265     H      0.644680000000     0.468100000000     0.432970000000     0.065589   
H266     H      0.760400000000     0.471440000000     0.499430000000     0.0516275  
H267     H      0.834720000000     0.578120000000     0.487500000000     0.0510288  
H268     H      0.670660000000     0.490860000000     0.489010000000     0.0375513  
H269     H      0.885360000000     0.565970000000     0.495010000000     0.0246337  
H270     H      0.588590000000     0.432580000000     0.408920000000     0.0875481  
H271     H      0.558140000000     0.446840000000     0.393360000000     0.106066   
H272     H      0.315480000000     0.419180000000     0.542550000000     0.021983   
H273     H      0.052890000000     0.408290000000     0.482690000000     0.0143885  
H274     H      0.210280000000     0.419710000000     0.549250000000     0.035973   
H275     H      0.211540000000     0.516130000000     0.487170000000     0.0321232  
H276     H      0.106200000000     0.414700000000     0.510670000000     0.0529745  
H277     H      0.267790000000     0.521180000000     0.509050000000     0.0367041  
H278     H      0.171570000000     0.498200000000     0.450980000000     0.061662   
H279     H      0.258290000000     0.417260000000     0.539270000000     0.0518504  
H280     H      0.312540000000     0.525420000000     0.542940000000     0.0505087  
H281     H      0.155430000000     0.412470000000     0.523450000000     0.0340631  
H282     H      0.370460000000     0.526240000000     0.544100000000     0.0276764  
H283     H      0.142620000000     0.514850000000     0.412030000000     0.0845663  
H284     H      0.095150000000     0.492820000000     0.404560000000     0.102669   
H285     H      0.965270000000     0.451700000000     0.614270000000     0.0193955  
H286     H      0.936420000000     0.509840000000     0.839930000000     0.0221724  
H287     H      0.018440000000     0.514200000000     0.695870000000     0.0389691  
H288     H      0.908510000000     0.492600000000     0.742390000000     0.0347467  
H289     H      0.935440000000     0.520440000000     0.788030000000     0.054661   
H290     H      0.909420000000     0.499040000000     0.689340000000     0.0380925  
H291     H      0.987920000000     0.461680000000     0.782870000000     0.0635625  
H292     H      0.966280000000     0.458020000000     0.664830000000     0.0522423  
H293     H      0.957900000000     0.548310000000     0.642850000000     0.0521474  
H294     H      0.018220000000     0.508870000000     0.748500000000     0.0364204  
H295     H      0.957630000000     0.541870000000     0.591480000000     0.0232422  
H296     H      0.011420000000     0.444840000000     0.824710000000     0.0864611  
H297     H      0.012460000000     0.457650000000     0.858700000000     0.110851   
H298     H      0.987860000000     0.415350000000     0.353220000000     0.025006   
H299     H      0.997770000000     0.511980000000     0.110040000000     0.0221069  
H300     H      0.978580000000     0.411030000000     0.253490000000     0.0375517  
H301     H      0.055940000000     0.523610000000     0.204260000000     0.0360407  
H302     H      0.997870000000     0.505830000000     0.161950000000     0.0548144  
H303     H      0.048190000000     0.518500000000     0.255950000000     0.0377836  
H304     H      0.051850000000     0.447060000000     0.165690000000     0.065311   
H305     H      0.002750000000     0.415980000000     0.304020000000     0.0531953  
H306     H      0.998120000000     0.508280000000     0.281680000000     0.051601   
H307     H      0.987980000000     0.416290000000     0.201690000000     0.0347125  
H308     H      0.984540000000     0.507520000000     0.330270000000     0.0226975  
H309     H      0.076170000000     0.445590000000     0.123270000000     0.0864685  
H310     H      0.074100000000     0.468280000000     0.090390000000     0.102426   
H311     H      0.643670000000     0.060820000000     0.919370000000     0.0249568  
H312     H      0.863450000000     0.315910000000     0.975930000000     0.0201426  
H313     H      0.711690000000     0.204380000000     0.874250000000     0.0369214  
H314     H      0.807720000000     0.206550000000     0.946250000000     0.0352322  
H315     H      0.817700000000     0.260230000000     0.965130000000     0.0539911  
H316     H      0.749940000000     0.154540000000     0.942410000000     0.0368466  
H317     H      0.838150000000     0.286310000000     0.874900000000     0.0631408  
H318     H      0.704180000000     0.107530000000     0.910440000000     0.0507435  
H319     H      0.663580000000     0.177230000000     0.910900000000     0.0505153  
H320     H      0.769390000000     0.256390000000     0.878160000000     0.0350629  
H321     H      0.604140000000     0.130650000000     0.920080000000     0.0193572  
H322     H      0.879490000000     0.341940000000     0.859490000000     0.0865142  
H323     H      0.900100000000     0.375030000000     0.882270000000     0.10178    
H324     H      0.120160000000     0.630960000000     0.975710000000     0.0182406  
H325     H      0.307330000000     0.895730000000     0.014450000000     0.0245717  
H326     H      0.155820000000     0.742030000000     0.992120000000     0.0370886  
H327     H      0.240510000000     0.759520000000     0.078430000000     0.0348743  
H328     H      0.247560000000     0.848470000000     0.023010000000     0.0540953  
H329     H      0.185750000000     0.704810000000     0.074230000000     0.0373541  
H330     H      0.295060000000     0.784760000000     0.050520000000     0.0639145  
H331     H      0.161660000000     0.687940000000     0.986120000000     0.050255   
H332     H      0.110390000000     0.671360000000     0.065720000000     0.0504804  
H333     H      0.210380000000     0.796490000000     0.996130000000     0.0359126  
H334     H      0.067620000000     0.613370000000     0.054290000000     0.0234783  
H335     H      0.358550000000     0.809650000000     0.056600000000     0.0869273  
H336     H      0.387720000000     0.853340000000     0.049710000000     0.0938152  
H337     H      0.837630000000     0.410580000000     0.047400000000     0.0188676  
H338     H      0.631030000000     0.498510000000     0.946780000000     0.0160559  
H339     H      0.729880000000     0.418240000000     0.043930000000     0.0366801  
H340     H      0.727920000000     0.478430000000     0.948110000000     0.0343961  
H341     H      0.686560000000     0.496520000000     0.956710000000     0.0536975  
H342     H      0.785510000000     0.486180000000     0.971230000000     0.0369526  
H343     H      0.626430000000     0.390310000000     0.981370000000     0.0629808  
H344     H      0.778020000000     0.404610000000     0.035040000000     0.051598   
H345     H      0.826410000000     0.512090000000     0.015290000000     0.0520719  
H346     H      0.672160000000     0.411050000000     0.021180000000     0.0354141  
H347     H      0.885910000000     0.517290000000     0.027850000000     0.0295556  
H348     H      0.562980000000     0.364090000000     0.980520000000     0.0859179  
H349     H      0.537770000000     0.385320000000     0.971960000000     0.105647   
H350     H      0.319230000000     0.462920000000     0.001030000000     0.0162062  
H351     H      0.118110000000     0.549970000000     0.901480000000     0.0153266  
H352     H      0.231200000000     0.493610000000     0.010370000000     0.0356511  
H353     H      0.238240000000     0.560390000000     0.916490000000     0.0349376  
H354     H      0.178700000000     0.565610000000     0.922310000000     0.0504693  
H355     H      0.294190000000     0.566510000000     0.942780000000     0.0377711  
H356     H      0.152230000000     0.461600000000     0.930490000000     0.0650109  
H357     H      0.267550000000     0.471650000000     0.993650000000     0.0501774  
H358     H      0.338700000000     0.579190000000     0.988070000000     0.0512903  
H359     H      0.175590000000     0.486820000000     0.983690000000     0.0373697  
H360     H      0.390870000000     0.569180000000     0.996180000000     0.025132   
H361     H      0.097350000000     0.422710000000     0.907030000000     0.0881975  
H362     H      0.066100000000     0.434540000000     0.888610000000     0.103966   
H363     H      0.537290000000     0.631790000000     0.540900000000     0.0229762  
H364     H      0.819740000000     0.841050000000     0.478800000000     0.0237175  
H365     H      0.679760000000     0.716820000000     0.580920000000     0.0382662  
H366     H      0.694150000000     0.790940000000     0.490490000000     0.035413   
H367     H      0.759470000000     0.796200000000     0.487810000000     0.0546658  
H368     H      0.638950000000     0.736390000000     0.496170000000     0.0379037  
H369     H      0.760630000000     0.839330000000     0.564660000000     0.0640867  
H370     H      0.581700000000     0.690560000000     0.549440000000     0.0520031  
H371     H      0.666560000000     0.673610000000     0.526610000000     0.0518444  
H372     H      0.734750000000     0.771810000000     0.575610000000     0.0358743  
H373     H      0.622470000000     0.616430000000     0.517590000000     0.0161687  
H374     H      0.814190000000     0.886850000000     0.579550000000     0.0888605  
H375     H      0.855140000000     0.904150000000     0.562220000000     0.109224   
H376     H      0.405270000000     0.337320000000     0.410590000000     0.0247614  
H377     H      0.107030000000     0.129250000000     0.435670000000     0.0155495  
H378     H      0.313520000000     0.223410000000     0.437210000000     0.0383684  
H379     H      0.200310000000     0.204260000000     0.380090000000     0.0352376  
H380     H      0.161980000000     0.177550000000     0.421060000000     0.0545122  
H381     H      0.253390000000     0.260200000000     0.377550000000     0.0378672  
H382     H      0.211310000000     0.115520000000     0.418820000000     0.0638473  
H383     H      0.361240000000     0.279780000000     0.398350000000     0.0516256  
H384     H      0.276130000000     0.292210000000     0.427610000000     0.0528643  
H385     H      0.260030000000     0.167320000000     0.440410000000     0.0358105  
H386     H      0.319810000000     0.347980000000     0.440170000000     0.027929   
H387     H      0.179520000000     0.058450000000     0.435500000000     0.0878653  
H388     H      0.137520000000     0.039880000000     0.451220000000     0.112765   
H389     H      0.571290000000     0.988110000000     0.374000000000     0.0197875  
H390     H      0.806920000000     0.943700000000     0.478250000000     0.0251972  
H391     H      0.675790000000     0.001230000000     0.404220000000     0.0395281  
H392     H      0.697470000000     0.903260000000     0.417220000000     0.0354442  
H393     H      0.745300000000     0.931150000000     0.463920000000     0.0559193  
H394     H      0.635740000000     0.893900000000     0.405130000000     0.0361398  
H395     H      0.782300000000     0.999330000000     0.387870000000     0.0640645  
H396     H      0.628200000000     0.989000000000     0.371660000000     0.0516721  
H397     H      0.585450000000     0.892460000000     0.421600000000     0.0484518  
H398     H      0.736870000000     0.010170000000     0.414260000000     0.036447   
H399     H      0.527530000000     0.891310000000     0.420940000000     0.0175155  
H400     H      0.844950000000     0.032290000000     0.382120000000     0.0852416  
H401     H      0.877890000000     0.032040000000     0.408550000000     0.103003   
H402     H      0.126430000000     0.003900000000     0.555750000000     0.0213573  
H403     H      0.426370000000     0.075320000000     0.526910000000     0.0188328  
H404     H      0.227240000000     0.968800000000     0.521390000000     0.0373702  
H405     H      0.317870000000     0.075100000000     0.563640000000     0.0355164  
H406     H      0.372290000000     0.080080000000     0.531150000000     0.053657   
H407     H      0.255420000000     0.064770000000     0.551100000000     0.0373395  
H408     H      0.327580000000     0.986760000000     0.584850000000     0.0661495  
H409     H      0.189040000000     0.018080000000     0.568770000000     0.0517144  
H410     H      0.199110000000     0.997860000000     0.483490000000     0.049872   
H411     H      0.288680000000     0.978740000000     0.534170000000     0.0397443  
H412     H      0.136690000000     0.984100000000     0.470890000000     0.0188272  
H413     H      0.363910000000     0.959960000000     0.597480000000     0.0872003  
H414     H      0.406950000000     0.975660000000     0.582950000000     0.0877038  
H415     H      0.991130000000     0.622040000000     0.394860000000     0.0260555  
H416     H      0.952530000000     0.844320000000     0.420210000000     0.0215333  
H417     H      0.974840000000     0.715350000000     0.386250000000     0.0367251  
H418     H      0.055410000000     0.797610000000     0.456580000000     0.0348155  
H419     H      0.958060000000     0.796690000000     0.411130000000     0.0544397  
H420     H      0.050730000000     0.742050000000     0.460600000000     0.0355528  
H421     H      0.072910000000     0.851970000000     0.429740000000     0.0631174  
H422     H      0.004780000000     0.680480000000     0.384830000000     0.0513728  
H423     H      0.001410000000     0.686520000000     0.475830000000     0.0515985  
H424     H      0.980430000000     0.771490000000     0.381600000000     0.0351486  
H425     H      0.988060000000     0.628720000000     0.485200000000     0.0258271  
H426     H      0.098190000000     0.905100000000     0.446850000000     0.086289   
H427     H      0.072840000000     0.922950000000     0.456050000000     0.105372   
H428     H      0.890760000000     0.059980000000     0.513670000000     0.025381   
H429     H      0.975230000000     0.344180000000     0.543860000000     0.0168412  
H430     H      0.884370000000     0.151720000000     0.540220000000     0.0367994  
H431     H      0.996080000000     0.257740000000     0.514460000000     0.0366184  
H432     H      0.973170000000     0.289960000000     0.555820000000     0.0548874  
H433     H      0.996900000000     0.204780000000     0.518710000000     0.037126   
H434     H      0.904630000000     0.252740000000     0.479580000000     0.0661204  
H435     H      0.884980000000     0.109530000000     0.518290000000     0.050786   
H436     H      0.997960000000     0.161870000000     0.547390000000     0.0506995  
H437     H      0.883470000000     0.205300000000     0.533620000000     0.0369419  
H438     H      0.003140000000     0.113430000000     0.539830000000     0.0254058  
H439     H      0.883120000000     0.286690000000     0.452100000000     0.0875285  
H440     H      0.892520000000     0.326340000000     0.462280000000     0.108497   
H441     H      0.931040000000     0.904810000000     0.848480000000     0.0255078  
H442     H      0.910400000000     0.985970000000     0.598380000000     0.021186   
H443     H      0.887380000000     0.893380000000     0.753830000000     0.0367059  
H444     H      0.950450000000     0.001510000000     0.693830000000     0.0356497  
H445     H      0.901430000000     0.982540000000     0.649410000000     0.0549106  
H446     H      0.951860000000     0.002080000000     0.745990000000     0.0360547  
H447     H      0.940160000000     0.910930000000     0.667360000000     0.0644178  
H448     H      0.923060000000     0.901170000000     0.796680000000     0.050931   
H449     H      0.920550000000     0.995180000000     0.785810000000     0.0502846  
H450     H      0.887910000000     0.893090000000     0.701560000000     0.0351896  
H451     H      0.930660000000     0.998970000000     0.837330000000     0.0225737  
H452     H      0.951310000000     0.889980000000     0.628220000000     0.085996   
H453     H      0.944140000000     0.902090000000     0.591690000000     0.0952407  
H454     H      0.970500000000     0.007350000000     0.332640000000     0.0172451  
H455     H      0.049220000000     0.043810000000     0.102410000000     0.0200421  
H456     H      0.029470000000     0.050950000000     0.247430000000     0.0373129  
H457     H      0.038120000000     0.958170000000     0.210620000000     0.0361335  
H458     H      0.062720000000     0.051070000000     0.153650000000     0.0542068  
H459     H      0.038360000000     0.960160000000     0.262810000000     0.0376725  
H460     H      0.987160000000     0.946650000000     0.173090000000     0.0624279  
H461     H      0.982240000000     0.012870000000     0.282350000000     0.0507296  
H462     H      0.071660000000     0.993580000000     0.306600000000     0.0524086  
H463     H      0.028740000000     0.048740000000     0.195330000000     0.0362012  
H464     H      0.059380000000     0.988290000000     0.357340000000     0.0269193  
H465     H      0.948870000000     0.915260000000     0.135770000000     0.0835717  
H466     H      0.947830000000     0.933200000000     0.100260000000     0.100441   
H467     H      0.849010000000     0.822430000000     0.941030000000     0.0244415  
H468     H      0.558310000000     0.633240000000     0.024890000000     0.0207064  
H469     H      0.770850000000     0.753580000000     0.010460000000     0.0381778  
H470     H      0.643660000000     0.713860000000     0.973090000000     0.0360158  
H471     H      0.607850000000     0.688800000000     0.013030000000     0.0538     
H472     H      0.692430000000     0.763820000000     0.949240000000     0.0379929  
H473     H      0.682600000000     0.650080000000     0.033920000000     0.0628468  
H474     H      0.795340000000     0.769380000000     0.953970000000     0.0515886  
H475     H      0.742220000000     0.824460000000     0.971000000000     0.0531056  
H476     H      0.722450000000     0.705220000000     0.035750000000     0.0338748  
H477     H      0.796420000000     0.876880000000     0.959040000000     0.0223346  
H478     H      0.660410000000     0.595670000000     0.058250000000     0.0845419  
H479     H      0.613610000000     0.568650000000     0.063510000000     0.0954926  
H480     H      0.320370000000     0.359970000000     0.931370000000     0.0178744  
H481     H      0.156770000000     0.070460000000     0.986980000000     0.0248077  
H482     H      0.234600000000     0.250310000000     0.928080000000     0.0360774  
H483     H      0.264210000000     0.179780000000     0.003710000000     0.0355693  
H484     H      0.210210000000     0.122680000000     0.975040000000     0.0568864  
H485     H      0.313270000000     0.233050000000     0.983950000000     0.0375204  
H486     H      0.167400000000     0.176850000000     0.010830000000     0.064241   
H487     H      0.272780000000     0.303690000000     0.940730000000     0.0492     
H488     H      0.350180000000     0.267570000000     0.945490000000     0.0519922  
H489     H      0.185980000000     0.198450000000     0.949460000000     0.0380082  
H490     H      0.398290000000     0.325570000000     0.937400000000     0.0278651  
H491     H      0.116210000000     0.145660000000     0.039040000000     0.0856296  
H492     H      0.094270000000     0.101430000000     0.045000000000     0.105244   
H493     H      0.646820000000     0.008650000000     0.964480000000     0.025326   
H494     H      0.890590000000     0.994760000000     0.077720000000     0.0152028  
H495     H      0.763990000000     0.076260000000     0.020570000000     0.0375447  
H496     H      0.784760000000     0.980460000000     0.057930000000     0.0368872  
H497     H      0.838290000000     0.000380000000     0.084710000000     0.054539   
H498     H      0.723360000000     0.970980000000     0.047600000000     0.0389661  
H499     H      0.870470000000     0.080460000000     0.016260000000     0.0620793  
H500     H      0.709370000000     0.022980000000     0.978560000000     0.0520394  
H501     H      0.684850000000     0.005780000000     0.068210000000     0.0528927  
H502     H      0.826060000000     0.086900000000     0.032840000000     0.0340902  
H503     H      0.622780000000     0.992400000000     0.053800000000     0.0250615  
H504     H      0.926630000000     0.100520000000     0.996180000000     0.0861386  
H505     H      0.954650000000     0.081900000000     0.005460000000     0.103228   
H506     H      0.306230000000     0.953330000000     0.978750000000     0.025179   
H507     H      0.016630000000     0.866070000000     0.926390000000     0.0217847  
H508     H      0.212450000000     0.927510000000     0.871160000000     0.0367047  
H509     H      0.123860000000     0.876070000000     0.947670000000     0.0349427  
H510     H      0.063620000000     0.851510000000     0.920950000000     0.0542187  
H511     H      0.185010000000     0.884530000000     0.958730000000     0.0359243  
H512     H      0.125190000000     0.948300000000     0.874650000000     0.0656649  
H513     H      0.242300000000     0.932440000000     0.966880000000     0.0507298  
H514     H      0.255140000000     0.908890000000     0.883650000000     0.0507962  
H515     H      0.150810000000     0.917150000000     0.859730000000     0.0348898  
H516     H      0.319110000000     0.931150000000     0.895680000000     0.0281121  
H517     H      0.098780000000     0.983700000000     0.863540000000     0.0877588  
H518     H      0.056150000000     0.973200000000     0.876100000000     0.0879772  
H519     H      0.960350000000     0.822130000000     0.034720000000     0.0199671  
H520     H      0.904030000000     0.569710000000     0.949180000000     0.0205148  
H521     H      0.905740000000     0.705160000000     0.040080000000     0.035562   
H522     H      0.916980000000     0.674230000000     0.944960000000     0.0361362  
H523     H      0.883910000000     0.609990000000     0.953960000000     0.0543856  
H524     H      0.915560000000     0.726050000000     0.947420000000     0.0371117  
H525     H      0.964470000000     0.651400000000     0.023070000000     0.0653129  
H526     H      0.946380000000     0.763760000000     0.036640000000     0.0499325  
H527     H      0.884470000000     0.753790000000     0.955060000000     0.05069    
H528     H      0.908690000000     0.653500000000     0.037480000000     0.0353521  
H529     H      0.901020000000     0.812270000000     0.952870000000     0.0252316  
H530     H      0.009040000000     0.635050000000     0.031880000000     0.0895974  
H531     H      0.012310000000     0.608100000000     0.009990000000     0.107896   
H532     H      0.007900000000     0.357240000000     0.923350000000     0.0264576  
H533     H      0.061990000000     0.133600000000     0.995920000000     0.0272912  
H534     H      0.069190000000     0.299250000000     0.915590000000     0.0351685  
H535     H      0.048330000000     0.221290000000     0.004210000000     0.0359932  
H536     H      0.083380000000     0.193130000000     0.994210000000     0.053235   
H537     H      0.049000000000     0.274100000000     0.006690000000     0.0373385  
H538     H      0.012650000000     0.186540000000     0.919180000000     0.0642895  
H539     H      0.024250000000     0.314460000000     0.919750000000     0.0513472  
H540     H      0.078760000000     0.333240000000     0.004600000000     0.0501542  
H541     H      0.067230000000     0.245320000000     0.913050000000     0.0346886  
H542     H      0.060460000000     0.374990000000     0.008130000000     0.0201533  
H543     H      0.971020000000     0.133780000000     0.903710000000     0.0862599  
H544     H      0.963390000000     0.095880000000     0.923590000000     0.104918   
N1       N      0.513680000000     0.471450000000     0.856050000000    -0.213171   
N2       N      0.500410000000     0.488670000000     0.610690000000    -0.192857   
N3       N      0.567300000000     0.525540000000     0.854090000000    -0.21752    
N4       N      0.444060000000     0.492380000000     0.100400000000    -0.212682   
N5       N      0.448910000000     0.483180000000     0.344650000000    -0.193706   
N6       N      0.392330000000     0.437030000000     0.104300000000    -0.217372   
N7       N      0.407000000000     0.577670000000     0.483950000000    -0.212158   
N8       N      0.417060000000     0.823610000000     0.482150000000    -0.194992   
N9       N      0.361590000000     0.554170000000     0.445340000000    -0.218802   
N10      N      0.514040000000     0.127350000000     0.464410000000    -0.212024   
N11      N      0.513070000000     0.372360000000     0.475610000000    -0.195032   
N12      N      0.521440000000     0.140100000000     0.413080000000    -0.218855   
N13      N      0.504880000000     0.972620000000     0.845570000000    -0.210602   
N14      N      0.518150000000     0.989830000000     0.602250000000    -0.191978   
N15      N      0.442620000000     0.933570000000     0.833550000000    -0.215846   
N16      N      0.434840000000     0.966910000000     0.339930000000    -0.210298   
N17      N      0.446730000000     0.984050000000     0.097420000000    -0.192566   
N18      N      0.444780000000     0.919600000000     0.337380000000    -0.219544   
N19      N      0.507620000000     0.629130000000     0.948530000000    -0.20766    
N20      N      0.513160000000     0.874040000000     0.936460000000    -0.192585   
N21      N      0.501760000000     0.638820000000     0.997700000000    -0.219893   
N22      N      0.445110000000     0.332710000000     0.005370000000    -0.209352   
N23      N      0.446660000000     0.084360000000     0.015090000000    -0.192858   
N24      N      0.407120000000     0.317310000000     0.045550000000    -0.219641   
N25      N      0.843640000000     0.349070000000     0.414810000000    -0.212957   
N26      N      0.621540000000     0.096370000000     0.496530000000    -0.193615   
N27      N      0.800330000000     0.368830000000     0.406210000000    -0.218323   
N28      N      0.086390000000     0.607710000000     0.516950000000    -0.212026   
N29      N      0.320340000000     0.858600000000     0.443620000000    -0.193359   
N30      N      0.051690000000     0.632910000000     0.528630000000    -0.218158   
N31      N      0.593650000000     0.506810000000     0.415880000000    -0.214422   
N32      N      0.851440000000     0.512440000000     0.500010000000    -0.193663   
N33      N      0.581220000000     0.451480000000     0.406690000000    -0.218322   
N34      N      0.080560000000     0.451080000000     0.452580000000    -0.216321   
N35      N      0.347050000000     0.473050000000     0.541590000000    -0.193159   
N36      N      0.117240000000     0.496060000000     0.418700000000    -0.220584   
N37      N      0.964450000000     0.481010000000     0.842240000000    -0.211433   
N38      N      0.961490000000     0.496400000000     0.598930000000    -0.194237   
N39      N      0.001180000000     0.454940000000     0.837660000000    -0.219529   
N40      N      0.024590000000     0.482950000000     0.106840000000    -0.210989   
N41      N      0.985700000000     0.461620000000     0.345690000000    -0.194003   
N42      N      0.064190000000     0.458580000000     0.110860000000    -0.217662   
N43      N      0.877460000000     0.334580000000     0.931880000000    -0.210393   
N44      N      0.619480000000     0.092170000000     0.921050000000    -0.192141   
N45      N      0.885190000000     0.349170000000     0.880650000000    -0.219792   
N46      N      0.335650000000     0.867570000000     0.026570000000    -0.21033    
N47      N      0.090710000000     0.617580000000     0.014310000000    -0.193463   
N48      N      0.361550000000     0.833060000000     0.048020000000    -0.217379   
N49      N      0.596300000000     0.446430000000     0.959920000000    -0.212464   
N50      N      0.866240000000     0.464130000000     0.037000000000    -0.193699   
N51      N      0.563100000000     0.386800000000     0.973680000000    -0.222339   
N52      N      0.098950000000     0.496670000000     0.907010000000    -0.216167   
N53      N      0.358630000000     0.515470000000     0.997840000000    -0.194538   
N54      N      0.089060000000     0.440950000000     0.902560000000    -0.218292   
N55      N      0.826010000000     0.866970000000     0.516210000000    -0.20912    
N56      N      0.576360000000     0.620100000000     0.527750000000    -0.19291    
N57      N      0.827340000000     0.887820000000     0.561490000000    -0.219879   
N58      N      0.126230000000     0.093370000000     0.436790000000    -0.209299   
N59      N      0.366030000000     0.346670000000     0.426860000000    -0.191686   
N60      N      0.156910000000     0.060490000000     0.439360000000    -0.220598   
N61      N      0.830710000000     0.978560000000     0.441380000000    -0.211059   
N62      N      0.546120000000     0.940410000000     0.398820000000    -0.198514   
N63      N      0.850780000000     0.020600000000     0.401080000000    -0.220009   
N64      N      0.406420000000     0.027390000000     0.551260000000    -0.213469   
N65      N      0.126790000000     0.993070000000     0.512280000000    -0.193564   
N66      N      0.383910000000     0.978070000000     0.584090000000    -0.218212   
N67      N      0.008930000000     0.875800000000     0.432030000000    -0.210176   
N68      N      0.988550000000     0.620800000000     0.440760000000    -0.191134   
N69      N      0.073010000000     0.904210000000     0.445680000000    -0.220161   
N70      N      0.942030000000     0.330350000000     0.504450000000    -0.211449   
N71      N      0.947670000000     0.083790000000     0.525010000000    -0.192612   
N72      N      0.898410000000     0.306560000000     0.465160000000    -0.220398   
N73      N      0.931580000000     0.951440000000     0.603270000000    -0.21277    
N74      N      0.932380000000     0.952530000000     0.846810000000    -0.193154   
N75      N      0.946080000000     0.906420000000     0.613390000000    -0.217894   
N76      N      0.010260000000     0.991150000000     0.107720000000    -0.210129   
N77      N      0.013900000000     0.997200000000     0.348930000000    -0.192679   
N78      N      0.961890000000     0.935400000000     0.120330000000    -0.218043   
N79      N      0.591290000000     0.609410000000     0.034040000000    -0.212537   
N80      N      0.827260000000     0.853490000000     0.950500000000    -0.192928   
N81      N      0.633800000000     0.591300000000     0.054270000000    -0.217932   
N82      N      0.129240000000     0.092790000000     0.004380000000    -0.210121   
N83      N      0.363150000000     0.347160000000     0.935030000000    -0.193537   
N84      N      0.112440000000     0.122860000000     0.032980000000    -0.218444   
N85      N      0.910570000000     0.034180000000     0.043690000000    -0.213388   
N86      N      0.630040000000     0.999530000000     0.008030000000    -0.192144   
N87      N      0.930740000000     0.081870000000     0.008570000000    -0.224327   
N88      N      0.045160000000     0.915740000000     0.905440000000    -0.213639   
N89      N      0.317730000000     0.944180000000     0.938090000000    -0.192111   
N90      N      0.076640000000     0.966920000000     0.875680000000    -0.216807   
N91      N      0.946230000000     0.587360000000     0.982970000000    -0.212649   
N92      N      0.932860000000     0.821850000000     0.993230000000    -0.194398   
N93      N      0.996420000000     0.617310000000     0.016530000000    -0.220354   
N94      N      0.023790000000     0.124670000000     0.959270000000    -0.212536   
N95      N      0.032160000000     0.368800000000     0.966290000000    -0.193852   
N96      N      0.980450000000     0.121680000000     0.920070000000    -0.221564   
O1       O      0.093290000000     0.041430000000     0.986760000000    -0.379911   
O2       O      0.067660000000     0.062810000000     0.011600000000    -0.370069   
O3       O      0.950980000000     0.985550000000     0.884680000000    -0.380794   
O4       O      0.940000000000     0.931420000000     0.892790000000    -0.376953   
O5       O      0.000510000000     0.073800000000     0.939930000000    -0.374828   
O6       O      0.015070000000     0.077660000000     0.988080000000    -0.374172   
O7       O      0.049400000000     0.956620000000     0.930410000000    -0.387018   
O8       O      0.994410000000     0.910370000000     0.923970000000    -0.368928   
O9       O      0.094590000000     0.025730000000     0.931830000000    -0.330463   
O10      O      0.086980000000     0.970210000000     0.991640000000    -0.52856    
O11      O      0.014370000000     0.050150000000     0.890400000000    -0.521629   
O12      O      0.927860000000     0.029580000000     0.909930000000    -0.359875   
O13      O      0.024540000000     0.027910000000     0.962670000000    -0.495934   
O14      O      0.999770000000     0.978770000000     0.930350000000    -0.636448   
O15      O      0.958790000000     0.872980000000     0.012590000000    -0.377358   
O16      O      0.939570000000     0.868570000000     0.965130000000    -0.372917   
O17      O      0.905950000000     0.991460000000     0.021420000000    -0.382597   
O18      O      0.961720000000     0.036320000000     0.029470000000    -0.373714   
O19      O      0.861960000000     0.905850000000     0.965770000000    -0.381083   
O20      O      0.887960000000     0.883540000000     0.941970000000    -0.365825   
O21      O      0.994800000000     0.958520000000     0.069690000000    -0.374825   
O22      O      0.012900000000     0.014320000000     0.060870000000    -0.378644   
O23      O      0.942310000000     0.890450000000     0.061080000000    -0.522272   
O24      O      0.032080000000     0.923190000000     0.044870000000    -0.355713   
O25      O      0.863820000000     0.919900000000     0.023400000000    -0.33669    
O26      O      0.866960000000     0.974740000000     0.962890000000    -0.529643   
O27      O      0.931420000000     0.918730000000     0.990930000000    -0.636079   
O28      O      0.956030000000     0.967640000000     0.022970000000    -0.499722   
O29      O      0.002340000000     0.935070000000     0.978950000000    -0.498337   
O30      O      0.953430000000     0.011090000000     0.974200000000    -0.635787   
O31      O      0.028290000000     0.985880000000     0.012370000000    -0.632361   
O32      O      0.927510000000     0.960500000000     0.941180000000    -0.500867   
O33      O      0.971040000000     0.889430000000     0.450810000000    -0.387783   
O34      O      0.026160000000     0.931310000000     0.437580000000    -0.37415    
O35      O      0.885230000000     0.986440000000     0.428930000000    -0.379473   
O36      O      0.872310000000     0.977180000000     0.476270000000    -0.372041   
O37      O      0.977390000000     0.994020000000     0.383040000000    -0.383125   
O38      O      0.027620000000     0.989200000000     0.397350000000    -0.369781   
O39      O      0.878870000000     0.884370000000     0.494620000000    -0.37503    
O40      O      0.870560000000     0.922630000000     0.514710000000    -0.366016   
O41      O      0.895170000000     0.873490000000     0.438220000000    -0.348803   
O42      O      0.934600000000     0.863520000000     0.506430000000    -0.529659   
O43      O      0.900310000000     0.952770000000     0.388800000000    -0.525475   
O44      O      0.949330000000     0.039910000000     0.395920000000    -0.359152   
O45      O      0.966320000000     0.950550000000     0.434800000000    -0.497961   
O46      O      0.914170000000     0.947440000000     0.461750000000    -0.634315   
O47      O      0.970280000000     0.957380000000     0.569890000000    -0.378036   
O48      O      0.923580000000     0.967880000000     0.555860000000    -0.379442   
O49      O      0.073740000000     0.074700000000     0.459300000000    -0.379393   
O50      O      0.082650000000     0.036960000000     0.439140000000    -0.367579   
O51      O      0.984920000000     0.069300000000     0.506970000000    -0.379666   
O52      O      0.926870000000     0.029030000000     0.514740000000    -0.365997   
O53      O      0.071780000000     0.983990000000     0.524740000000    -0.369198   
O54      O      0.080770000000     0.983420000000     0.477760000000    -0.377      
O55      O      0.045590000000     0.004590000000     0.568890000000    -0.522787   
O56      O      0.011010000000     0.921130000000     0.554610000000    -0.352088   
O57      O      0.059950000000     0.087310000000     0.513770000000    -0.341307   
O58      O      0.014830000000     0.094600000000     0.448070000000    -0.527244   
O59      O      0.986350000000     0.008800000000     0.519200000000    -0.633681   
O60      O      0.038520000000     0.011690000000     0.491900000000    -0.498891   
O61      O      0.947250000000     0.938440000000     0.515630000000    -0.501903   
O62      O      0.005510000000     0.021230000000     0.438010000000    -0.630192   
O63      O      0.000210000000     0.941290000000     0.488950000000    -0.629818   
O64      O      0.952790000000     0.018440000000     0.465020000000    -0.495745   
O65      O      0.026940000000     0.404590000000     0.993210000000    -0.374534   
O66      O      0.004450000000     0.399090000000     0.946510000000    -0.367608   
O67      O      0.898990000000     0.438220000000     0.031760000000    -0.382211   
O68      O      0.927560000000     0.494610000000     0.030950000000    -0.356165   
O69      O      0.894060000000     0.375660000000     0.962260000000    -0.384394   
O70      O      0.930810000000     0.384850000000     0.926550000000    -0.374726   
O71      O      0.022860000000     0.461930000000     0.064060000000    -0.380721   
O72      O      0.005680000000     0.501630000000     0.063950000000    -0.382663   
O73      O      0.992650000000     0.392860000000     0.047580000000    -0.341343   
O74      O      0.077910000000     0.459670000000     0.030640000000    -0.52757    
O75      O      0.886360000000     0.373940000000     0.020770000000    -0.520881   
O76      O      0.857500000000     0.419490000000     0.971940000000    -0.351835   
O77      O      0.965090000000     0.415870000000     0.983030000000    -0.498596   
O78      O      0.966280000000     0.451710000000     0.022750000000    -0.632335   
O79      O      0.075120000000     0.574900000000     0.986010000000    -0.389064   
O80      O      0.039430000000     0.566110000000     0.022390000000    -0.368112   
O81      O      0.959950000000     0.496960000000     0.885560000000    -0.373732   
O82      O      0.968350000000     0.451840000000     0.885210000000    -0.38216    
O83      O      0.946950000000     0.548470000000     0.956820000000    -0.374111   
O84      O      0.968690000000     0.553110000000     0.003680000000    -0.371458   
O85      O      0.055340000000     0.511240000000     0.911620000000    -0.361379   
O86      O      0.038920000000     0.457530000000     0.912020000000    -0.371067   
O87      O      0.095650000000     0.577310000000     0.934090000000    -0.522698   
O88      O      0.110560000000     0.523670000000     0.975570000000    -0.366367   
O89      O      0.967330000000     0.556150000000     0.901770000000    -0.332826   
O90      O      0.891120000000     0.484520000000     0.920410000000    -0.532148   
O91      O      0.005890000000     0.534530000000     0.966510000000    -0.630122   
O92      O      0.004010000000     0.498710000000     0.927380000000    -0.472313   
O93      O      0.037380000000     0.503240000000     0.007920000000    -0.499262   
O94      O      0.932990000000     0.447360000000     0.941420000000    -0.629467   
O95      O      0.035100000000     0.467010000000     0.968130000000    -0.625383   
O96      O      0.935800000000     0.483250000000     0.981810000000    -0.490181   
O97      O      0.951040000000     0.380360000000     0.517850000000    -0.378789   
O98      O      0.949740000000     0.373590000000     0.470150000000    -0.365887   
O99      O      0.866950000000     0.476300000000     0.485430000000    -0.38015    
O100     O      0.911520000000     0.525900000000     0.501060000000    -0.365514   
O101     O      0.863770000000     0.397220000000     0.436700000000    -0.388246   
O102     O      0.904860000000     0.384130000000     0.423580000000    -0.374011   
O103     O      0.960030000000     0.464980000000     0.564120000000    -0.37924    
O104     O      0.963040000000     0.515750000000     0.550880000000    -0.377915   
O105     O      0.903370000000     0.395520000000     0.549470000000    -0.353194   
O106     O      0.997210000000     0.426650000000     0.559680000000    -0.525801   
O107     O      0.839580000000     0.404720000000     0.489400000000    -0.523279   
O108     O      0.851090000000     0.456440000000     0.425630000000    -0.343126   
O109     O      0.921660000000     0.416690000000     0.479800000000    -0.502732   
O110     O      0.923990000000     0.464270000000     0.507510000000    -0.634026   
O111     O      0.066120000000     0.555570000000     0.502050000000    -0.388669   
O112     O      0.025050000000     0.569750000000     0.512650000000    -0.370088   
O113     O      0.979310000000     0.489420000000     0.379900000000    -0.379688   
O114     O      0.973890000000     0.437570000000     0.392380000000    -0.370839   
O115     O      0.980970000000     0.571520000000     0.425820000000    -0.372127   
O116     O      0.976430000000     0.575200000000     0.473120000000    -0.366495   
O117     O      0.050480000000     0.480700000000     0.439600000000    -0.358058   
O118     O      0.018610000000     0.425280000000     0.444340000000    -0.367359   
O119     O      0.101690000000     0.539060000000     0.467890000000    -0.51963    
O120     O      0.070350000000     0.480980000000     0.516180000000    -0.370322   
O121     O      0.022420000000     0.558170000000     0.390890000000    -0.336054   
O122     O      0.927560000000     0.517880000000     0.384880000000    -0.533877   
O123     O      0.008530000000     0.533270000000     0.462900000000    -0.631556   
O124     O      0.005280000000     0.486020000000     0.435550000000    -0.466969   
O125     O      0.999940000000     0.493180000000     0.516080000000    -0.496776   
O126     O      0.930260000000     0.457550000000     0.426640000000    -0.631349   
O127     O      0.997670000000     0.444790000000     0.488410000000    -0.630128   
O128     O      0.931760000000     0.505110000000     0.454550000000    -0.498649   
O129     O      0.373800000000     0.956480000000     0.925510000000    -0.372192   
O130     O      0.366850000000     0.965600000000     0.970510000000    -0.369569   
O131     O      0.477030000000     0.888090000000     0.957390000000    -0.378536   
O132     O      0.529910000000     0.929740000000     0.939760000000    -0.3676     
O133     O      0.388290000000     0.884150000000     0.005030000000    -0.376985   
O134     O      0.373920000000     0.923580000000     0.014490000000    -0.36594    
O135     O      0.468790000000     0.972070000000     0.878800000000    -0.377773   
O136     O      0.524820000000     0.979370000000     0.893400000000    -0.371095   
O137     O      0.395020000000     0.935420000000     0.883850000000    -0.334251   
O138     O      0.434860000000     0.019860000000     0.887430000000    -0.528167   
O139     O      0.399780000000     0.863240000000     0.953460000000    -0.522127   
O140     O      0.452940000000     0.872070000000     0.018000000000    -0.344988   
O141     O      0.414500000000     0.940430000000     0.961640000000    -0.497513   
O142     O      0.466360000000     0.942490000000     0.935840000000    -0.630412   
O143     O      0.564730000000     0.074500000000     0.939430000000    -0.381263   
O144     O      0.579690000000     0.035600000000     0.929750000000    -0.365712   
O145     O      0.484080000000     0.987350000000     0.064010000000    -0.378307   
O146     O      0.427580000000     0.978820000000     0.049420000000    -0.371002   
O147     O      0.575140000000     0.990920000000     0.019970000000    -0.376752   
O148     O      0.584280000000     0.989880000000     0.973120000000    -0.368126   
O149     O      0.481830000000     0.068950000000     0.994740000000    -0.36972    
O150     O      0.424000000000     0.029610000000     0.003980000000    -0.371204   
O151     O      0.551560000000     0.102740000000     0.979440000000    -0.515152   
O152     O      0.489950000000     0.080220000000     0.923950000000    -0.360185   
O153     O      0.559130000000     0.030400000000     0.052820000000    -0.337322   
O154     O      0.516380000000     0.941780000000     0.059750000000    -0.532965   
O155     O      0.537970000000     0.018740000000     0.981180000000    -0.634304   
O156     O      0.485900000000     0.016310000000     0.006820000000    -0.493466   
O157     O      0.499230000000     0.013440000000     0.926680000000    -0.497712   
O158     O      0.453470000000     0.945540000000     0.015760000000    -0.633292   
O159     O      0.444890000000     0.011570000000     0.952980000000    -0.629194   
O160     O      0.506780000000     0.947440000000     0.989610000000    -0.495319   
O161     O      0.489920000000     0.078040000000     0.441930000000    -0.380771   
O162     O      0.509280000000     0.079330000000     0.489190000000    -0.374478   
O163     O      0.356490000000     0.908410000000     0.462980000000    -0.380325   
O164     O      0.380560000000     0.889320000000     0.433760000000    -0.366033   
O165     O      0.402010000000     0.988300000000     0.524160000000    -0.387466   
O166     O      0.456640000000     0.035150000000     0.529980000000    -0.366017   
O167     O      0.451730000000     0.996280000000     0.380200000000    -0.370264   
O168     O      0.433400000000     0.940370000000     0.385600000000    -0.377846   
O169     O      0.416990000000     0.031130000000     0.408780000000    -0.357147   
O170     O      0.505720000000     0.061890000000     0.390050000000    -0.521215   
O171     O      0.363100000000     0.980040000000     0.462740000000    -0.529477   
O172     O      0.356010000000     0.920690000000     0.518710000000    -0.329755   
O173     O      0.447310000000     0.014200000000     0.473400000000    -0.501204   
O174     O      0.420420000000     0.965800000000     0.437520000000    -0.632408   
O175     O      0.525030000000     0.974440000000     0.409690000000    -0.353396   
O176     O      0.488760000000     0.919580000000     0.414890000000    -0.371846   
O177     O      0.499100000000     0.958440000000     0.562980000000    -0.371567   
O178     O      0.512020000000     0.013200000000     0.557010000000    -0.376754   
O179     O      0.446160000000     0.873900000000     0.502950000000    -0.378939   
O180     O      0.429660000000     0.872510000000     0.454920000000    -0.372334   
O181     O      0.586300000000     0.045330000000     0.479140000000    -0.382584   
O182     O      0.562150000000     0.064380000000     0.508320000000    -0.366172   
O183     O      0.574000000000     0.964270000000     0.475040000000    -0.53515    
O184     O      0.596260000000     0.024270000000     0.431320000000    -0.337723   
O185     O      0.524600000000     0.917940000000     0.531280000000    -0.354562   
O186     O      0.440230000000     0.893970000000     0.555900000000    -0.520118   
O187     O      0.496000000000     0.938260000000     0.470190000000    -0.625378   
O188     O      0.523180000000     0.987370000000     0.505640000000    -0.49445    
O189     O      0.491640000000     0.984960000000     0.424480000000    -0.465994   
O190     O      0.451410000000     0.967860000000     0.519110000000    -0.634681   
O191     O      0.518230000000     0.031970000000     0.458830000000    -0.630263   
O192     O      0.425820000000     0.921430000000     0.484360000000    -0.497107   
O193     O      0.448890000000     0.380720000000     0.020840000000    -0.3739     
O194     O      0.464510000000     0.381460000000     0.975810000000    -0.370937   
O195     O      0.377950000000     0.482930000000     0.981630000000    -0.383865   
O196     O      0.419170000000     0.530430000000     0.002470000000    -0.366188   
O197     O      0.380780000000     0.400510000000     0.944820000000    -0.38275    
O198     O      0.423570000000     0.387420000000     0.935980000000    -0.360376   
O199     O      0.447410000000     0.461640000000     0.067190000000    -0.379853   
O200     O      0.462020000000     0.516420000000     0.054940000000    -0.377144   
O201     O      0.400930000000     0.394890000000     0.048970000000    -0.345519   
O202     O      0.494500000000     0.428090000000     0.067830000000    -0.528878   
O203     O      0.341340000000     0.422480000000     0.964580000000    -0.513557   
O204     O      0.386460000000     0.474220000000     0.911810000000    -0.355924   
O205     O      0.432270000000     0.424550000000     0.980860000000    -0.498268   
O206     O      0.429410000000     0.468810000000     0.007200000000    -0.629036   
O207     O      0.573800000000     0.557510000000     0.020390000000    -0.387985   
O208     O      0.530850000000     0.572210000000     0.024520000000    -0.373289   
O209     O      0.511230000000     0.501840000000     0.889920000000    -0.379524   
O210     O      0.492660000000     0.446060000000     0.900630000000    -0.380928   
O211     O      0.505150000000     0.581230000000     0.934600000000    -0.37326    
O212     O      0.486500000000     0.579970000000     0.978340000000    -0.372892   
O213     O      0.577020000000     0.478910000000     0.976160000000    -0.380802   
O214     O      0.536160000000     0.433180000000     0.952930000000    -0.375202   
O215     O      0.610170000000     0.545670000000     0.983510000000    -0.515515   
O216     O      0.572860000000     0.488400000000     0.041640000000    -0.357057   
O217     O      0.552250000000     0.569060000000     0.905670000000    -0.337054   
O218     O      0.459580000000     0.532200000000     0.887330000000    -0.524821   
O219     O      0.522840000000     0.538590000000     0.974590000000    -0.638593   
O220     O      0.525480000000     0.493730000000     0.948750000000    -0.499287   
O221     O      0.502660000000     0.494610000000     0.026750000000    -0.500034   
O222     O      0.451680000000     0.467750000000     0.928710000000    -0.629591   
O223     O      0.505650000000     0.448280000000     0.999500000000    -0.63285    
O224     O      0.449230000000     0.514640000000     0.956180000000    -0.491568   
O225     O      0.506660000000     0.408650000000     0.501060000000    -0.379577   
O226     O      0.494060000000     0.408210000000     0.452460000000    -0.372306   
O227     O      0.371780000000     0.449030000000     0.519000000000    -0.383586   
O228     O      0.408550000000     0.500610000000     0.535240000000    -0.356772   
O229     O      0.379350000000     0.387840000000     0.456080000000    -0.383112   
O230     O      0.422960000000     0.393670000000     0.428240000000    -0.366475   
O231     O      0.503020000000     0.469850000000     0.568410000000    -0.373521   
O232     O      0.481870000000     0.506960000000     0.567420000000    -0.378655   
O233     O      0.469560000000     0.400350000000     0.553720000000    -0.347452   
O234     O      0.557730000000     0.463400000000     0.538520000000    -0.527647   
O235     O      0.381410000000     0.385030000000     0.523490000000    -0.532302   
O236     O      0.338600000000     0.415190000000     0.470620000000    -0.334755   
O237     O      0.450490000000     0.423590000000     0.485070000000    -0.503568   
O238     O      0.446590000000     0.458460000000     0.524490000000    -0.631671   
O239     O      0.562940000000     0.577930000000     0.499830000000    -0.386477   
O240     O      0.518850000000     0.573680000000     0.526210000000    -0.367637   
O241     O      0.444120000000     0.500880000000     0.386890000000    -0.376685   
O242     O      0.462420000000     0.461620000000     0.388300000000    -0.376858   
O243     O      0.421880000000     0.547810000000     0.457040000000    -0.371883   
O244     O      0.441140000000     0.553750000000     0.504260000000    -0.371901   
O245     O      0.551470000000     0.523120000000     0.420670000000    -0.364592   
O246     O      0.533020000000     0.468730000000     0.420380000000    -0.368403   
O247     O      0.579100000000     0.587800000000     0.443390000000    -0.523576   
O248     O      0.597510000000     0.532550000000     0.484180000000    -0.366184   
O249     O      0.475850000000     0.571420000000     0.409100000000    -0.352836   
O250     O      0.387360000000     0.504540000000     0.410380000000    -0.523532   
O251     O      0.492010000000     0.543360000000     0.470640000000    -0.629872   
O252     O      0.494800000000     0.508130000000     0.431710000000    -0.483212   
O253     O      0.518520000000     0.509740000000     0.514050000000    -0.496061   
O254     O      0.423170000000     0.457190000000     0.441560000000    -0.634401   
O255     O      0.521870000000     0.475080000000     0.475230000000    -0.628488   
O256     O      0.420760000000     0.490910000000     0.480700000000    -0.498643   
Zr1      Zr     0.048100000000     0.990310000000     0.965730000000     1.38812    
Zr2      Zr     0.974970000000     0.015390000000     0.928440000000     1.37825    
Zr3      Zr     0.980970000000     0.930890000000     0.024920000000     1.37352    
Zr4      Zr     0.907610000000     0.956110000000     0.987780000000     1.38777    
Zr5      Zr     0.002890000000     0.022640000000     0.008930000000     1.375      
Zr6      Zr     0.952770000000     0.923740000000     0.944440000000     1.37281    
Zr7      Zr     0.938040000000     0.910170000000     0.473850000000     1.38005    
Zr8      Zr     0.943350000000     0.988950000000     0.423860000000     1.37667    
Zr9      Zr     0.009310000000     0.970600000000     0.530090000000     1.37924    
Zr10     Zr     0.014920000000     0.049030000000     0.480150000000     1.39166    
Zr11     Zr     0.028660000000     0.982800000000     0.450010000000     1.36795    
Zr12     Zr     0.924080000000     0.976760000000     0.503500000000     1.3696     
Zr13     Zr     0.016020000000     0.444270000000     0.015340000000     1.38377    
Zr14     Zr     0.916110000000     0.424760000000     0.989420000000     1.3786     
Zr15     Zr     0.054780000000     0.525390000000     0.960030000000     1.36971    
Zr16     Zr     0.954450000000     0.506410000000     0.934720000000     1.37452    
Zr17     Zr     0.983310000000     0.439550000000     0.935300000000     1.36803    
Zr18     Zr     0.987070000000     0.510880000000     0.014220000000     1.36905    
Zr19     Zr     0.956830000000     0.435210000000     0.523440000000     1.38523    
Zr20     Zr     0.890580000000     0.446980000000     0.463070000000     1.39143    
Zr21     Zr     0.039610000000     0.502730000000     0.479860000000     1.36964    
Zr22     Zr     0.972980000000     0.515600000000     0.419470000000     1.37729    
Zr23     Zr     0.962380000000     0.427400000000     0.443680000000     1.36651    
Zr24     Zr     0.967050000000     0.522480000000     0.498600000000     1.36865    
Zr25     Zr     0.437060000000     0.974460000000     0.918310000000     1.37528    
Zr26     Zr     0.444500000000     0.909560000000     0.979890000000     1.38257    
Zr27     Zr     0.507250000000     0.049030000000     0.962650000000     1.37405    
Zr28     Zr     0.515360000000     0.984610000000     0.024460000000     1.38171    
Zr29     Zr     0.423660000000     0.977270000000     0.997180000000     1.36861    
Zr30     Zr     0.528850000000     0.981650000000     0.945650000000     1.36732    
Zr31     Zr     0.467470000000     0.021420000000     0.426390000000     1.37628    
Zr32     Zr     0.402120000000     0.958320000000     0.485210000000     1.38908    
Zr33     Zr     0.541260000000     0.994260000000     0.457830000000     1.36255    
Zr34     Zr     0.476210000000     0.931780000000     0.517240000000     1.37427    
Zr35     Zr     0.497760000000     0.023630000000     0.506310000000     1.37426    
Zr36     Zr     0.445210000000     0.929040000000     0.436780000000     1.3707     
Zr37     Zr     0.457660000000     0.436830000000     0.028260000000     1.37835    
Zr38     Zr     0.405510000000     0.457040000000     0.959060000000     1.3811     
Zr39     Zr     0.549370000000     0.505950000000     0.996750000000     1.38794    
Zr40     Zr     0.497040000000     0.525440000000     0.927410000000     1.38034    
Zr41     Zr     0.479910000000     0.435970000000     0.951520000000     1.36831    
Zr42     Zr     0.474950000000     0.526800000000     0.004130000000     1.36689    
Zr43     Zr     0.497310000000     0.450830000000     0.520690000000     1.38642    
Zr44     Zr     0.401010000000     0.432630000000     0.487880000000     1.39012    
Zr45     Zr     0.541500000000     0.533500000000     0.467820000000     1.37178    
Zr46     Zr     0.444580000000     0.516180000000     0.435310000000     1.37841    
Zr47     Zr     0.474050000000     0.449010000000     0.439030000000     1.37572    
Zr48     Zr     0.467560000000     0.517730000000     0.516640000000     1.36901    


