data_structure

_audit_creation_method RASPA-1.0
_audit_creation_date 2023-6-4
_audit_author_name 'Poobodin Mano'

_cell_length_a    26.1039
_cell_length_b    28.5192
_cell_length_c    28.8656
_cell_angle_alpha 82.7378
_cell_angle_beta  96.3382
_cell_angle_gamma 119.442
_cell_volume      18535

_symmetry_cell_setting          triclinic
_symmetry_space_group_name_Hall 'P 1'
_symmetry_space_group_name_H-M  'P 1'
_symmetry_Int_Tables_number     1

_symmetry_equiv_pos_as_xyz 'x,y,z'

loop_
_atom_site_label
_atom_site_type_symbol
_atom_site_fract_x
_atom_site_fract_y
_atom_site_fract_z
_atom_site_charge
C1       C      0.162470000000     0.140550000000     0.003470000000     0.397574   
C2       C      0.905790000000     0.927400000000     0.828890000000     0.388913   
C3       C      0.014970000000     0.153170000000     0.955740000000     0.402308   
C4       C      0.083840000000     0.922640000000     0.896370000000     0.384156   
C5       C      0.994840000000     0.811270000000     0.005730000000     0.405525   
C6       C      0.890900000000     0.024980000000     0.085790000000     0.387658   
C7       C      0.802440000000     0.810920000000     0.967040000000     0.39486    
C8       C      0.057770000000     0.019820000000     0.142050000000     0.398413   
C9       C      0.028500000000     0.871850000000     0.416600000000     0.365569   
C10      C      0.791210000000     0.953840000000     0.434940000000     0.373453   
C11      C      0.048450000000     0.017350000000     0.328340000000     0.388683   
C12      C      0.824170000000     0.844160000000     0.559720000000     0.390774   
C13      C      0.929090000000     0.952810000000     0.641680000000     0.388629   
C14      C      0.178610000000     0.136120000000     0.438420000000     0.386711   
C15      C      0.925380000000     0.111840000000     0.518890000000     0.389164   
C16      C      0.189640000000     0.025600000000     0.535420000000     0.383398   
C17      C      0.024240000000     0.344420000000     0.956190000000     0.408481   
C18      C      0.820940000000     0.448220000000     0.058350000000     0.386001   
C19      C      0.863700000000     0.311070000000     0.917450000000     0.37522    
C20      C      0.010010000000     0.467550000000     0.147670000000     0.387443   
C21      C      0.108990000000     0.639600000000     0.061590000000     0.38339    
C22      C      0.954260000000     0.499350000000     0.809850000000     0.392601   
C23      C      0.927070000000     0.615310000000     0.997840000000     0.397239   
C24      C      0.143330000000     0.513300000000     0.896030000000     0.383503   
C25      C      0.976850000000     0.316470000000     0.519980000000     0.387421   
C26      C      0.827880000000     0.518880000000     0.455650000000     0.388084   
C27      C      0.873340000000     0.327740000000     0.415780000000     0.388405   
C28      C      0.962400000000     0.522330000000     0.621420000000     0.392954   
C29      C      0.103420000000     0.651790000000     0.547580000000     0.380511   
C30      C      0.059890000000     0.481400000000     0.328920000000     0.388266   
C31      C      0.011350000000     0.670500000000     0.422300000000     0.381964   
C32      C      0.159870000000     0.479290000000     0.472100000000     0.373733   
C33      C      0.300730000000     0.944390000000     0.934270000000     0.387364   
C34      C      0.530690000000     0.846960000000     0.921390000000     0.38584    
C35      C      0.305210000000     0.823610000000     0.043930000000     0.373698   
C36      C      0.565250000000     0.015670000000     0.836370000000     0.393113   
C37      C      0.670260000000     0.117370000000     0.925600000000     0.378002   
C38      C      0.426700000000     0.935830000000     0.147630000000     0.386694   
C39      C      0.682380000000     0.990050000000     0.048930000000     0.380696   
C40      C      0.438660000000     0.095380000000     0.041710000000     0.385399   
C41      C      0.537760000000     0.163270000000     0.457780000000     0.390834   
C42      C      0.324790000000     0.820400000000     0.505420000000     0.360611   
C43      C      0.414250000000     0.052470000000     0.575380000000     0.379897   
C44      C      0.420760000000     0.934210000000     0.335790000000     0.390056   
C45      C      0.569950000000     0.905830000000     0.400930000000     0.376558   
C46      C      0.579370000000     0.030790000000     0.648040000000     0.381198   
C47      C      0.446050000000     0.796010000000     0.530280000000     0.411751   
C48      C      0.675640000000     0.143830000000     0.483890000000     0.388792   
C49      C      0.455530000000     0.294980000000     0.022800000000     0.37948    
C50      C      0.328690000000     0.517280000000     0.982240000000     0.384506   
C51      C      0.330200000000     0.300960000000     0.927440000000     0.395477   
C52      C      0.477190000000     0.520210000000     0.122150000000     0.394062   
C53      C      0.625900000000     0.641550000000     0.028980000000     0.387515   
C54      C      0.484020000000     0.429330000000     0.817710000000     0.395659   
C55      C      0.506900000000     0.654340000000     0.914530000000     0.377473   
C56      C      0.621980000000     0.433920000000     0.949310000000     0.367151   
C57      C      0.533550000000     0.346250000000     0.458690000000     0.400139   
C58      C      0.361490000000     0.485860000000     0.562840000000     0.390961   
C59      C      0.379930000000     0.323290000000     0.428850000000     0.386401   
C60      C      0.531920000000     0.481290000000     0.645570000000     0.392061   
C61      C      0.648250000000     0.652980000000     0.556990000000     0.390411   
C62      C      0.473630000000     0.508180000000     0.310650000000     0.391682   
C63      C      0.484350000000     0.649470000000     0.496290000000     0.396905   
C64      C      0.646960000000     0.525040000000     0.376940000000     0.388974   
C65      C      0.555940000000     0.444470000000     0.723300000000    -0.0151323  
C66      C      0.488320000000     0.485760000000     0.714520000000    -0.045248   
C67      C      0.510860000000     0.396740000000     0.754620000000    -0.0118178  
C68      C      0.441570000000     0.432840000000     0.737300000000     0.0815568  
C69      C      0.389790000000     0.436210000000     0.754520000000    -0.189666   
C70      C      0.481120000000     0.476680000000     0.237430000000    -0.0123565  
C71      C      0.444890000000     0.544330000000     0.234490000000    -0.0420854  
C72      C      0.522030000000     0.511800000000     0.199480000000    -0.00920149 
C73      C      0.478200000000     0.572670000000     0.188770000000     0.0746874  
C74      C      0.443410000000     0.595630000000     0.156410000000    -0.185546   
C75      C      0.510270000000     0.726360000000     0.542460000000    -0.0130483  
C76      C      0.435680000000     0.704140000000     0.473000000000    -0.0448122  
C77      C      0.465620000000     0.726830000000     0.572480000000    -0.0115482  
C78      C      0.392540000000     0.702290000000     0.505990000000     0.0843932  
C79      C      0.341140000000     0.707940000000     0.479640000000    -0.19064    
C80      C      0.600080000000     0.258100000000     0.476510000000    -0.0102839  
C81      C      0.542430000000     0.238250000000     0.401350000000    -0.03906    
C82      C      0.565400000000     0.281890000000     0.493050000000    -0.0114209  
C83      C      0.509100000000     0.267030000000     0.412880000000     0.0749873  
C84      C      0.498250000000     0.295120000000     0.366440000000    -0.185025   
C85      C      0.560400000000     0.063600000000     0.714770000000    -0.0173383  
C86      C      0.605810000000     0.001440000000     0.725900000000    -0.0396273  
C87      C      0.582220000000     0.078420000000     0.765160000000    -0.00884975 
C88      C      0.631460000000     0.022430000000     0.774240000000     0.0752504  
C89      C      0.645720000000     0.981170000000     0.804400000000    -0.183907   
C90      C      0.404410000000     0.967800000000     0.255880000000    -0.0134476  
C91      C      0.431920000000     0.892750000000     0.270880000000    -0.0424407  
C92      C      0.374720000000     0.946000000000     0.208680000000    -0.0117762  
C93      C      0.402950000000     0.874120000000     0.222490000000     0.0754768  
C94      C      0.428640000000     0.842640000000     0.203050000000    -0.183228   
C95      C      0.465470000000     0.714530000000     0.903910000000    -0.0148466  
C96      C      0.575550000000     0.751070000000     0.904260000000    -0.0454848  
C97      C      0.475050000000     0.767060000000     0.876180000000    -0.00784181 
C98      C      0.582460000000     0.806690000000     0.882240000000     0.0756478  
C99      C      0.642670000000     0.853500000000     0.896740000000    -0.187993   
C100     C      0.405740000000     0.155200000000     0.999680000000    -0.00498242 
C101     C      0.421990000000     0.155350000000     0.086770000000    -0.036729   
C102     C      0.449950000000     0.214840000000     0.994710000000    -0.0184059  
C103     C      0.455360000000     0.219180000000     0.081750000000     0.0667384  
C104     C      0.438130000000     0.239410000000     0.121290000000    -0.182648   
C105     C      0.821610000000     0.270530000000     0.483240000000    -0.0101579  
C106     C      0.770240000000     0.263240000000     0.404140000000    -0.0359153  
C107     C      0.773740000000     0.213480000000     0.499260000000    -0.0167654  
C108     C      0.727160000000     0.204140000000     0.417370000000     0.0676558  
C109     C      0.668480000000     0.189970000000     0.388670000000    -0.175771   
C110     C      0.258510000000     0.764910000000     0.567230000000    -0.0194821  
C111     C      0.219640000000     0.762340000000     0.481980000000    -0.0393756  
C112     C      0.205120000000     0.708990000000     0.575610000000    -0.00846783 
C113     C      0.159740000000     0.741080000000     0.504320000000     0.0729028  
C114     C      0.150830000000     0.786450000000     0.518930000000    -0.180949   
C115     C      0.789320000000     0.578270000000     0.414590000000    -0.0141474  
C116     C      0.732280000000     0.474800000000     0.411530000000    -0.0344985  
C117     C      0.754450000000     0.581840000000     0.368540000000    -0.0107274  
C118     C      0.705200000000     0.482790000000     0.363280000000     0.0740526  
C119     C      0.741220000000     0.487000000000     0.322780000000    -0.185321   
C120     C      0.254270000000     0.533230000000     0.514460000000    -0.0143036  
C121     C      0.196610000000     0.434430000000     0.534140000000    -0.0401261  
C122     C      0.312160000000     0.532440000000     0.521780000000    -0.00938351 
C123     C      0.253810000000     0.431490000000     0.549390000000     0.0761819  
C124     C      0.244680000000     0.397610000000     0.596980000000    -0.185375   
C125     C      0.014720000000     0.524630000000     0.697920000000    -0.0127545  
C126     C      0.945800000000     0.562010000000     0.687070000000    -0.0389525  
C127     C      0.979410000000     0.483410000000     0.736230000000    -0.00812847 
C128     C      0.914200000000     0.526230000000     0.731500000000     0.0713815  
C129     C      0.891530000000     0.556620000000     0.756320000000    -0.183318   
C130     C      0.096050000000     0.527050000000     0.251580000000    -0.0151665  
C131     C      0.059510000000     0.428850000000     0.266010000000    -0.0402232  
C132     C      0.044470000000     0.518560000000     0.216810000000    -0.00896417 
C133     C      0.009570000000     0.418060000000     0.227410000000     0.0682474  
C134     C      0.994950000000     0.367210000000     0.203670000000    -0.179316   
C135     C      0.823720000000     0.214040000000     0.922920000000    -0.0170503  
C136     C      0.762660000000     0.258800000000     0.892160000000    -0.0438888  
C137     C      0.774710000000     0.160960000000     0.903280000000    -0.0137225  
C138     C      0.716130000000     0.205100000000     0.872730000000     0.0779222  
C139     C      0.655370000000     0.202110000000     0.864660000000    -0.19071    
C140     C      0.207070000000     0.786710000000     0.078070000000    -0.0180839  
C141     C      0.252990000000     0.727080000000     0.071270000000    -0.0436238  
C142     C      0.145390000000     0.734610000000     0.074830000000    -0.0127095  
C143     C      0.205150000000     0.689520000000     0.105360000000     0.0803292  
C144     C      0.205070000000     0.635580000000     0.119450000000    -0.191947   
C145     C      0.720460000000     0.487640000000     0.984410000000    -0.0128044  
C146     C      0.659090000000     0.390840000000     0.013440000000    -0.0389693  
C147     C      0.776240000000     0.484630000000     0.997910000000    -0.00915008 
C148     C      0.716180000000     0.389120000000     0.033360000000     0.0757567  
C149     C      0.703490000000     0.355880000000     0.081320000000    -0.186791   
C150     C      0.220910000000     0.477320000000     0.966900000000    -0.00688486 
C151     C      0.286980000000     0.572780000000     0.936050000000    -0.0450746  
C152     C      0.194880000000     0.462560000000     0.917200000000    -0.0194656  
C153     C      0.253250000000     0.557690000000     0.887360000000     0.0775531  
C154     C      0.253280000000     0.606670000000     0.858110000000    -0.186908   
C155     C      0.793480000000     0.757050000000     0.606020000000    -0.0088486  
C156     C      0.724420000000     0.795480000000     0.591650000000    -0.0398039  
C157     C      0.751660000000     0.707450000000     0.580730000000    -0.010437   
C158     C      0.675220000000     0.734650000000     0.598030000000     0.0748286  
C159     C      0.659640000000     0.716000000000     0.649300000000    -0.185224   
C160     C      0.321680000000     0.241590000000     0.384180000000    -0.0165557  
C161     C      0.332790000000     0.234560000000     0.471630000000    -0.0373211  
C162     C      0.270180000000     0.182360000000     0.394470000000    -0.0140731  
C163     C      0.266340000000     0.212920000000     0.473100000000     0.0764674  
C164     C      0.245780000000     0.185580000000     0.522400000000    -0.186415   
C165     C      0.626780000000     0.857990000000     0.427490000000    -0.0183666  
C166     C      0.653840000000     0.921650000000     0.357140000000    -0.0369411  
C167     C      0.686760000000     0.894830000000     0.452930000000    -0.0163098  
C168     C      0.712670000000     0.961970000000     0.380950000000     0.0711518  
C169     C      0.757690000000     0.994040000000     0.343270000000    -0.181914   
C170     C      0.349220000000     0.074900000000     0.522150000000    -0.0140249  
C171     C      0.318060000000     0.025100000000     0.601920000000    -0.0414476  
C172     C      0.294810000000     0.083140000000     0.518750000000    -0.0177276  
C173     C      0.270330000000     0.042030000000     0.599680000000     0.0713709  
C174     C      0.223510000000     0.003000000000     0.634480000000    -0.18133    
C175     C      0.969980000000     0.778300000000     0.394660000000    -0.0181119  
C176     C      0.081240000000     0.822930000000     0.399960000000    -0.0423716  
C177     C      0.970600000000     0.730620000000     0.424070000000    -0.00603052 
C178     C      0.069030000000     0.765970000000     0.387250000000     0.0747433  
C179     C      0.063780000000     0.762720000000     0.334060000000    -0.185293   
C180     C      0.913300000000     0.185380000000     0.476710000000    -0.00915102 
C181     C      0.895250000000     0.164910000000     0.560970000000    -0.0386952  
C182     C      0.968450000000     0.238290000000     0.485720000000    -0.00819185 
C183     C      0.943240000000     0.224940000000     0.569780000000     0.0671783  
C184     C      0.922540000000     0.244660000000     0.607300000000    -0.180624   
C185     C      0.860750000000     0.940940000000     0.700600000000    -0.0152105  
C186     C      0.931940000000     0.902760000000     0.716510000000    -0.0407733  
C187     C      0.871870000000     0.953130000000     0.752110000000    -0.00974283 
C188     C      0.899770000000     0.877830000000     0.762230000000     0.0758498  
C189     C      0.841870000000     0.824780000000     0.756620000000    -0.183486   
C190     C      0.054390000000     0.070830000000     0.253350000000    -0.0119008  
C191     C      0.114850000000     0.025210000000     0.269290000000    -0.0382949  
C192     C      0.032320000000     0.048760000000     0.205980000000    -0.0138751  
C193     C      0.097120000000     0.002590000000     0.220710000000     0.0755885  
C194     C      0.152690000000     0.008120000000     0.201010000000    -0.189803   
C195     C      0.669730000000     0.740950000000     0.017140000000    -0.0213037  
C196     C      0.733200000000     0.699390000000     0.038090000000    -0.0375567  
C197     C      0.694270000000     0.758390000000     0.967770000000    -0.00542768 
C198     C      0.753560000000     0.711710000000     0.987630000000     0.0726949  
C199     C      0.812330000000     0.712910000000     0.985740000000    -0.18453    
C200     C      0.224990000000     0.235430000000     0.920230000000    -0.00933898 
C201     C      0.295860000000     0.207690000000     0.960080000000    -0.0455879  
C202     C      0.198850000000     0.230280000000     0.967000000000    -0.0122248  
C203     C      0.270470000000     0.202850000000     0.007610000000     0.0833323  
C204     C      0.278010000000     0.162150000000     0.043830000000    -0.195933   
C205     C      0.806600000000     0.000680000000     0.132810000000    -0.00919665 
C206     C      0.844840000000     0.082440000000     0.079060000000    -0.0430484  
C207     C      0.750350000000     0.971180000000     0.101980000000    -0.0118544  
C208     C      0.789410000000     0.057760000000     0.044860000000     0.0757847  
C209     C      0.772480000000     0.102310000000     0.029320000000    -0.190564   
C210     C      0.133870000000     0.869940000000     0.925060000000    -0.0170439  
C211     C      0.175470000000     0.945900000000     0.860530000000    -0.0430166  
C212     C      0.195300000000     0.896240000000     0.950450000000    -0.00986644 
C213     C      0.228940000000     0.935730000000     0.867640000000     0.0762226  
C214     C      0.221220000000     0.889850000000     0.839890000000    -0.183155   
C215     C      0.929680000000     0.683220000000     0.044880000000    -0.012861   
C216     C      0.934820000000     0.698470000000     0.957460000000    -0.0457155  
C217     C      0.991860000000     0.731460000000     0.050460000000    -0.00990509 
C218     C      0.997980000000     0.744450000000     0.962790000000     0.0848812  
C219     C      0.044410000000     0.726600000000     0.961100000000    -0.186234   
C220     C      0.077140000000     0.245800000000     0.978410000000    -0.0128737  
C221     C      0.012460000000     0.226070000000     0.903150000000    -0.0406326  
C222     C      0.050650000000     0.277510000000     0.992260000000    -0.0061599  
C223     C      0.028820000000     0.285990000000     0.902550000000     0.0737528  
C224     C      0.084540000000     0.323440000000     0.875740000000    -0.18216    
H1       H      0.013430000000     0.985600000000     0.872710000000     0.200405   
H2       H      0.903530000000     0.038640000000     0.988400000000     0.200433   
H3       H      0.904900000000     0.846020000000     0.028850000000     0.185826   
H4       H      0.111930000000     0.031150000000     0.049890000000     0.191211   
H5       H      0.826620000000     0.992760000000     0.884810000000     0.138218   
H6       H      0.794560000000     0.974530000000     0.974010000000     0.196458   
H7       H      0.842000000000     0.845540000000     0.094080000000     0.128342   
H8       H      0.967930000000     0.866010000000     0.154520000000     0.200865   
H9       H      0.127000000000     0.920700000000     0.064120000000     0.137086   
H10      H      0.187800000000     0.001430000000     0.007820000000     0.187501   
H11      H      0.117560000000     0.100540000000     0.873770000000     0.127166   
H12      H      0.015160000000     0.088000000000     0.823760000000     0.182197   
H13      H      0.938160000000     0.818830000000     0.116160000000     0.187134   
H14      H      0.210010000000     0.019430000000     0.953100000000     0.201526   
H15      H      0.955540000000     0.096220000000     0.819920000000     0.196508   
H16      H      0.750390000000     0.916910000000     0.004230000000     0.204183   
H17      H      0.851400000000     0.900580000000     0.456850000000     0.191495   
H18      H      0.052210000000     0.078100000000     0.394710000000     0.194265   
H19      H      0.000990000000     0.060330000000     0.575010000000     0.185413   
H20      H      0.064820000000     0.918000000000     0.521270000000     0.189739   
H21      H      0.920070000000     0.084520000000     0.371930000000     0.136011   
H22      H      0.037950000000     0.165700000000     0.393140000000     0.186226   
H23      H      0.107570000000     0.145380000000     0.566700000000     0.12665    
H24      H      0.139270000000     0.081780000000     0.627090000000     0.191362   
H25      H      0.033290000000     0.887780000000     0.616570000000     0.131067   
H26      H      0.004750000000     0.813140000000     0.517010000000     0.18686    
H27      H      0.846100000000     0.807830000000     0.432490000000     0.124403   
H28      H      0.876560000000     0.888620000000     0.349250000000     0.191642   
H29      H      0.076430000000     0.056480000000     0.654190000000     0.191078   
H30      H      0.961930000000     0.801560000000     0.560820000000     0.191813   
H31      H      0.859300000000     0.931800000000     0.315710000000     0.198347   
H32      H      0.078090000000     0.210550000000     0.432350000000     0.199321   
H33      H      0.918620000000     0.411630000000     0.081370000000     0.196219   
H34      H      0.875660000000     0.430740000000     0.889070000000     0.192405   
H35      H      0.026550000000     0.612710000000     0.977650000000     0.19409    
H36      H      0.092970000000     0.462860000000     0.972700000000     0.196402   
H37      H      0.764180000000     0.357770000000     0.920590000000     0.129718   
H38      H      0.816670000000     0.489310000000     0.869680000000     0.196207   
H39      H      0.024210000000     0.637120000000     0.868580000000     0.131793   
H40      H      0.132340000000     0.679780000000     0.938190000000     0.18904    
H41      H      0.180730000000     0.548950000000     0.030580000000     0.129168   
H42      H      0.131020000000     0.417060000000     0.057180000000     0.192103   
H43      H      0.928220000000     0.316930000000     0.078770000000     0.127012   
H44      H      0.788430000000     0.296440000000     0.048820000000     0.188518   
H45      H      0.143930000000     0.653310000000     0.894510000000     0.193818   
H46      H      0.135450000000     0.459710000000     0.094260000000     0.193633   
H47      H      0.746070000000     0.294280000000     0.000410000000     0.192548   
H48      H      0.828160000000     0.546530000000     0.889560000000     0.19955    
H49      H      0.872860000000     0.456130000000     0.531560000000     0.198415   
H50      H      0.953320000000     0.454970000000     0.363780000000     0.194373   
H51      H      0.084580000000     0.626460000000     0.463440000000     0.190426   
H52      H      0.068470000000     0.434000000000     0.535550000000     0.194022   
H53      H      0.828870000000     0.432690000000     0.341220000000     0.133955   
H54      H      0.951520000000     0.591040000000     0.320070000000     0.202153   
H55      H      0.146700000000     0.646940000000     0.385220000000     0.124977   
H56      H      0.212550000000     0.645970000000     0.475830000000     0.187827   
H57      H      0.121660000000     0.508890000000     0.606810000000     0.134769   
H58      H      0.035680000000     0.402220000000     0.631350000000     0.183353   
H59      H      0.855800000000     0.328600000000     0.583730000000     0.137465   
H60      H      0.767840000000     0.356450000000     0.479730000000     0.195699   
H61      H      0.236050000000     0.626400000000     0.527240000000     0.195858   
H62      H      0.970370000000     0.379510000000     0.653910000000     0.19405    
H63      H      0.748890000000     0.363600000000     0.423190000000     0.190053   
H64      H      0.961380000000     0.545330000000     0.296900000000     0.19592    
H65      H      0.481420000000     0.909500000000     0.897100000000     0.193075   
H66      H      0.422560000000     0.877840000000     0.077710000000     0.194358   
H67      H      0.632060000000     0.050630000000     0.027720000000     0.194192   
H68      H      0.430610000000     0.051540000000     0.958320000000     0.189671   
H69      H      0.424530000000     0.786060000000     0.066860000000     0.126863   
H70      H      0.515340000000     0.848400000000     0.120910000000     0.190795   
H71      H      0.577330000000     0.044000000000     0.139470000000     0.137522   
H72      H      0.663630000000     0.151740000000     0.047540000000     0.187468   
H73      H      0.526810000000     0.154750000000     0.928200000000     0.125586   
H74      H      0.399320000000     0.057380000000     0.850460000000     0.196155   
H75      H      0.372340000000     0.890540000000     0.852900000000     0.124363   
H76      H      0.336820000000     0.805690000000     0.915210000000     0.185894   
H77      H      0.609810000000     0.138090000000     0.082240000000     0.192253   
H78      H      0.472840000000     0.094290000000     0.854660000000     0.188668   
H79      H      0.353340000000     0.758360000000     0.940740000000     0.199272   
H80      H      0.576470000000     0.891400000000     0.150070000000     0.200502   
H81      H      0.359460000000     0.926040000000     0.433930000000     0.190175   
H82      H      0.475130000000     0.978470000000     0.607410000000     0.202192   
H83      H      0.561470000000     0.903200000000     0.493220000000     0.199692   
H84      H      0.574740000000     0.097010000000     0.441000000000     0.201687   
H85      H      0.334070000000     0.889730000000     0.618410000000     0.133404   
H86      H      0.455020000000     0.870170000000     0.654040000000     0.186967   
H87      H      0.622000000000     0.914950000000     0.620140000000     0.138986   
H88      H      0.681180000000     0.986890000000     0.523750000000     0.207544   
H89      H      0.639110000000     0.063330000000     0.364840000000     0.135119   
H90      H      0.519080000000     0.103730000000     0.333020000000     0.185569   
H91      H      0.372240000000     0.065060000000     0.411180000000     0.138568   
H92      H      0.276680000000     0.915230000000     0.470110000000     0.189265   
H93      H      0.718910000000     0.018160000000     0.476090000000     0.209879   
H94      H      0.450590000000     0.095270000000     0.328310000000     0.192049   
H95      H      0.273540000000     0.948090000000     0.512590000000     0.20268    
H96      H      0.516090000000     0.864310000000     0.664490000000     0.191199   
H97      H      0.381760000000     0.456610000000     0.048020000000     0.198816   
H98      H      0.403740000000     0.423290000000     0.870550000000     0.190506   
H99      H      0.576810000000     0.604100000000     0.947200000000     0.195782   
H100     H      0.550530000000     0.407740000000     0.022260000000     0.203488   
H101     H      0.297370000000     0.419100000000     0.860910000000     0.126674   
H102     H      0.403960000000     0.548120000000     0.822580000000     0.203145   
H103     H      0.620490000000     0.599060000000     0.868590000000     0.126018   
H104     H      0.707120000000     0.594260000000     0.940510000000     0.190707   
H105     H      0.634390000000     0.510270000000     0.086940000000     0.14144    
H106     H      0.547830000000     0.399860000000     0.124290000000     0.191202   
H107     H      0.338100000000     0.332670000000     0.069610000000     0.135204   
H108     H      0.239620000000     0.361530000000     0.992320000000     0.191192   
H109     H      0.727900000000     0.592040000000     0.997410000000     0.196624   
H110     H      0.489470000000     0.381280000000     0.155510000000     0.195534   
H111     H      0.226090000000     0.364630000000     0.934350000000     0.188887   
H112     H      0.462030000000     0.572770000000     0.789570000000     0.198681   
H113     H      0.445920000000     0.434130000000     0.580490000000     0.201782   
H114     H      0.398400000000     0.453030000000     0.390480000000     0.190207   
H115     H      0.571530000000     0.631150000000     0.473390000000     0.19442    
H116     H      0.610590000000     0.462210000000     0.466520000000     0.205907   
H117     H      0.290030000000     0.398360000000     0.422110000000     0.12733    
H118     H      0.365200000000     0.573230000000     0.399630000000     0.202687   
H119     H      0.569920000000     0.659930000000     0.375520000000     0.127297   
H120     H      0.700670000000     0.677420000000     0.420730000000     0.191234   
H121     H      0.720570000000     0.566840000000     0.528050000000     0.1407     
H122     H      0.650010000000     0.423060000000     0.554420000000     0.199556   
H123     H      0.445210000000     0.327350000000     0.574180000000     0.131876   
H124     H      0.302370000000     0.327740000000     0.548800000000     0.190478   
H125     H      0.747300000000     0.661650000000     0.454520000000     0.19996    
H126     H      0.653700000000     0.459540000000     0.597000000000     0.201461   
H127     H      0.263880000000     0.330630000000     0.499270000000     0.193591   
H128     H      0.357980000000     0.530460000000     0.361540000000     0.197758   
H129     H      0.404600000000     0.472790000000     0.772960000000     0.0732934  
H130     H      0.513900000000     0.515790000000     0.740560000000     0.056109   
H131     H      0.591110000000     0.473830000000     0.746300000000     0.0388814  
H132     H      0.534520000000     0.383360000000     0.782970000000     0.0392776  
H133     H      0.465820000000     0.503340000000     0.689090000000     0.0471879  
H134     H      0.360600000000     0.437980000000     0.724060000000     0.0594855  
H135     H      0.421130000000     0.403290000000     0.710070000000     0.0149606  
H136     H      0.577370000000     0.429230000000     0.702660000000     0.0401187  
H137     H      0.483510000000     0.361970000000     0.733200000000     0.0383292  
H138     H      0.363340000000     0.399740000000     0.777910000000     0.0600508  
H139     H      0.401940000000     0.562630000000     0.141740000000     0.0715498  
H140     H      0.397510000000     0.517210000000     0.225280000000     0.0391321  
H141     H      0.439370000000     0.444660000000     0.221980000000     0.0385341  
H142     H      0.536760000000     0.487890000000     0.182530000000     0.037409   
H143     H      0.447360000000     0.575990000000     0.254940000000     0.0486133  
H144     H      0.431710000000     0.619650000000     0.176290000000     0.0607371  
H145     H      0.520910000000     0.607850000000     0.198980000000     0.0203695  
H146     H      0.503310000000     0.456540000000     0.259850000000     0.0399338  
H147     H      0.562800000000     0.544680000000     0.215280000000     0.037844   
H148     H      0.470790000000     0.623650000000     0.127820000000     0.0797767  
H149     H      0.355200000000     0.739470000000     0.449920000000     0.08201    
H150     H      0.458470000000     0.744380000000     0.453220000000     0.0576163  
H151     H      0.540780000000     0.768450000000     0.529020000000     0.0341173  
H152     H      0.488700000000     0.754770000000     0.600520000000     0.0364469  
H153     H      0.410640000000     0.673680000000     0.447110000000     0.0445277  
H154     H      0.310340000000     0.669470000000     0.464020000000     0.0572183  
H155     H      0.371440000000     0.661330000000     0.524880000000     0.011565   
H156     H      0.537500000000     0.711650000000     0.565080000000     0.0429999  
H157     H      0.439130000000     0.685830000000     0.590160000000     0.0378431  
H158     H      0.317280000000     0.716130000000     0.504220000000     0.0760721  
H159     H      0.539380000000     0.331980000000     0.355710000000     0.0752246  
H160     H      0.582350000000     0.267320000000     0.382200000000     0.0342057  
H161     H      0.638500000000     0.290460000000     0.457590000000     0.0288111  
H162     H      0.596590000000     0.314560000000     0.515460000000     0.0350908  
H163     H      0.514150000000     0.205930000000     0.377750000000     0.04023    
H164     H      0.482540000000     0.267630000000     0.337860000000     0.0555528  
H165     H      0.465160000000     0.235110000000     0.424570000000     0.0187973  
H166     H      0.618470000000     0.242050000000     0.507000000000     0.0456504  
H167     H      0.529340000000     0.250600000000     0.514740000000     0.0469734  
H168     H      0.462550000000     0.304740000000     0.369070000000     0.0871812  
H169     H      0.604830000000     0.943240000000     0.813660000000     0.0725433  
H170     H      0.565770000000     0.961150000000     0.730300000000     0.0437549  
H171     H      0.512240000000     0.034930000000     0.714400000000     0.0390488  
H172     H      0.551050000000     0.087720000000     0.780080000000     0.035592   
H173     H      0.639240000000     0.996370000000     0.709420000000     0.039546   
H174     H      0.672570000000     0.970600000000     0.784930000000     0.0568559  
H175     H      0.674190000000     0.060230000000     0.769310000000     0.018562   
H176     H      0.567060000000     0.101110000000     0.693110000000     0.0407217  
H177     H      0.625240000000     0.116400000000     0.764540000000     0.0325905  
H178     H      0.672980000000     0.998880000000     0.836370000000     0.0783823  
H179     H      0.477320000000     0.866700000000     0.202080000000     0.0750431  
H180     H      0.480610000000     0.916320000000     0.268610000000     0.0493218  
H181     H      0.448410000000     0.003620000000     0.249960000000     0.0388693  
H182     H      0.376770000000     0.980260000000     0.184220000000     0.0376634  
H183     H      0.421570000000     0.856030000000     0.295140000000     0.0488285  
H184     H      0.418220000000     0.805100000000     0.226030000000     0.0590628  
H185     H      0.355740000000     0.844350000000     0.227650000000     0.0168372  
H186     H      0.376710000000     0.981290000000     0.270750000000     0.0351925  
H187     H      0.327460000000     0.916030000000     0.212910000000     0.0367086  
H188     H      0.408630000000     0.830470000000     0.167590000000     0.0592403  
H189     H      0.647360000000     0.856330000000     0.935170000000     0.0722989  
H190     H      0.587820000000     0.754490000000     0.942170000000     0.0444876  
H191     H      0.461120000000     0.716800000000     0.941380000000     0.0526352  
H192     H      0.436760000000     0.773450000000     0.878680000000     0.0320443  
H193     H      0.606260000000     0.742800000000     0.887440000000     0.0376068  
H194     H      0.678440000000     0.847120000000     0.886510000000     0.0605957  
H195     H      0.581980000000     0.806720000000     0.843600000000     0.0132995  
H196     H      0.423660000000     0.680850000000     0.890240000000     0.0310505  
H197     H      0.476390000000     0.763600000000     0.838400000000     0.030748   
H198     H      0.648630000000     0.892230000000     0.878150000000     0.0729115  
H199     H      0.394350000000     0.236920000000     0.112970000000     0.0710155  
H200     H      0.376100000000     0.139640000000     0.096700000000     0.0362322  
H201     H      0.360340000000     0.148820000000     0.999240000000     0.0298978  
H202     H      0.439000000000     0.230020000000     0.959770000000     0.047248   
H203     H      0.444010000000     0.141240000000     0.116030000000     0.0320398  
H204     H      0.436150000000     0.214690000000     0.154750000000     0.054808   
H205     H      0.503120000000     0.232100000000     0.088100000000     0.0148187  
H206     H      0.407470000000     0.135740000000     0.969150000000     0.0217705  
H207     H      0.495190000000     0.220500000000     0.994020000000     0.0524349  
H208     H      0.472010000000     0.281440000000     0.127650000000     0.0720301  
H209     H      0.644090000000     0.206640000000     0.403670000000     0.0643374  
H210     H      0.750050000000     0.288230000000     0.409370000000     0.0422608  
H211     H      0.812490000000     0.300380000000     0.496590000000     0.0265352  
H212     H      0.763620000000     0.213670000000     0.535690000000     0.0325408  
H213     H      0.778580000000     0.268110000000     0.366310000000     0.0356769  
H214     H      0.676360000000     0.206710000000     0.351640000000     0.0529888  
H215     H      0.745460000000     0.179460000000     0.406470000000     0.0325593  
H216     H      0.863700000000     0.275580000000     0.500300000000     0.0440614  
H217     H      0.791910000000     0.185380000000     0.500080000000     0.0366434  
H218     H      0.640630000000     0.145830000000     0.387380000000     0.051687   
H219     H      0.173070000000     0.800100000000     0.553350000000     0.07336    
H220     H      0.225770000000     0.795530000000     0.454520000000     0.0319767  
H221     H      0.252590000000     0.795290000000     0.582950000000     0.0414338  
H222     H      0.193700000000     0.703150000000     0.612660000000     0.0316173  
H223     H      0.218570000000     0.729540000000     0.464290000000     0.0299575  
H224     H      0.168010000000     0.821910000000     0.492780000000     0.0578785  
H225     H      0.125470000000     0.721670000000     0.476130000000     0.0104767  
H226     H      0.297220000000     0.763410000000     0.586370000000     0.0373107  
H227     H      0.218190000000     0.678530000000     0.570670000000     0.0361449  
H228     H      0.103040000000     0.771580000000     0.521560000000     0.0682869  
H229     H      0.788490000000     0.516900000000     0.328090000000     0.0817654  
H230     H      0.741610000000     0.441170000000     0.409820000000     0.0385021  
H231     H      0.835940000000     0.610120000000     0.411030000000     0.0393182  
H232     H      0.781880000000     0.590800000000     0.338490000000     0.0309352  
H233     H      0.698880000000     0.461290000000     0.438030000000     0.0391577  
H234     H      0.737640000000     0.447050000000     0.319690000000     0.0622151  
H235     H      0.661840000000     0.446010000000     0.358090000000     0.0191255  
H236     H      0.772580000000     0.587860000000     0.443590000000     0.0388623  
H237     H      0.747170000000     0.617240000000     0.367400000000     0.0383022  
H238     H      0.723480000000     0.498890000000     0.289350000000     0.0670022  
H239     H      0.244720000000     0.420810000000     0.625160000000     0.0652693  
H240     H      0.176470000000     0.436990000000     0.565130000000     0.0386585  
H241     H      0.244610000000     0.543090000000     0.547290000000     0.0361245  
H242     H      0.344830000000     0.570260000000     0.537650000000     0.0408725  
H243     H      0.164560000000     0.395820000000     0.518940000000     0.0460022  
H244     H      0.201930000000     0.359500000000     0.595900000000     0.0583729  
H245     H      0.258650000000     0.409240000000     0.522810000000     0.0208349  
H246     H      0.260500000000     0.566280000000     0.486870000000     0.0319576  
H247     H      0.327130000000     0.533070000000     0.486940000000     0.0418403  
H248     H      0.279240000000     0.385700000000     0.606320000000     0.0721517  
H249     H      0.928690000000     0.592160000000     0.772320000000     0.0819322  
H250     H      0.979770000000     0.602940000000     0.696790000000     0.0437961  
H251     H      0.049310000000     0.561910000000     0.713600000000     0.0367863  
H252     H      0.010700000000     0.473430000000     0.758740000000     0.0377821  
H253     H      0.913120000000     0.566870000000     0.661620000000     0.0419084  
H254     H      0.866530000000     0.571480000000     0.730790000000     0.0587996  
H255     H      0.874340000000     0.490010000000     0.718790000000     0.015394   
H256     H      0.038340000000     0.509110000000     0.680050000000     0.037601   
H257     H      0.944850000000     0.445780000000     0.721040000000     0.0373922  
H258     H      0.860170000000     0.529100000000     0.782970000000     0.0723097  
H259     H      0.033340000000     0.373050000000     0.185560000000     0.0785788  
H260     H      0.098570000000     0.432380000000     0.250510000000     0.0416776  
H261     H      0.133000000000     0.530920000000     0.232610000000     0.0346897  
H262     H      0.060350000000     0.554240000000     0.190590000000     0.0380729  
H263     H      0.045090000000     0.394220000000     0.293190000000     0.0442164  
H264     H      0.983290000000     0.332350000000     0.230350000000     0.0608358  
H265     H      0.969450000000     0.408220000000     0.245380000000     0.01521    
H266     H      0.113110000000     0.565670000000     0.267900000000     0.0457317  
H267     H      0.007960000000     0.516680000000     0.234910000000     0.0329821  
H268     H      0.956030000000     0.356370000000     0.178690000000     0.071817   
H269     H      0.642330000000     0.210720000000     0.896490000000     0.0835094  
H270     H      0.747340000000     0.262020000000     0.925520000000     0.0357936  
H271     H      0.818690000000     0.210810000000     0.961120000000     0.0386228  
H272     H      0.775090000000     0.126100000000     0.925010000000     0.0366412  
H273     H      0.765550000000     0.292840000000     0.866920000000     0.0293572  
H274     H      0.657130000000     0.233000000000     0.836300000000     0.0607501  
H275     H      0.729170000000     0.205080000000     0.837260000000     0.0172646  
H276     H      0.867310000000     0.217770000000     0.918090000000     0.0344085  
H277     H      0.784560000000     0.159000000000     0.867280000000     0.038224   
H278     H      0.621480000000     0.161910000000     0.853460000000     0.0729585  
H279     H      0.203770000000     0.615620000000     0.088530000000     0.0806653  
H280     H      0.244180000000     0.708380000000     0.037700000000     0.0604351  
H281     H      0.203640000000     0.820640000000     0.057020000000     0.0403061  
H282     H      0.126440000000     0.736090000000     0.038720000000     0.0278846  
H283     H      0.296200000000     0.732430000000     0.087180000000     0.0386654  
H284     H      0.245880000000     0.642950000000     0.141060000000     0.0607474  
H285     H      0.215790000000     0.709480000000     0.138520000000     0.0160223  
H286     H      0.217960000000     0.797220000000     0.114970000000     0.0390426  
H287     H      0.116080000000     0.735790000000     0.099230000000     0.0340108  
H288     H      0.166750000000     0.607950000000     0.140660000000     0.06951    
H289     H      0.700540000000     0.379250000000     0.107960000000     0.0660528  
H290     H      0.637690000000     0.395970000000     0.042240000000     0.036954   
H291     H      0.712400000000     0.505070000000     0.013000000000     0.0342442  
H292     H      0.810440000000     0.525670000000     0.007080000000     0.0433572  
H293     H      0.627910000000     0.351030000000     0.999820000000     0.0474316  
H294     H      0.661200000000     0.317490000000     0.078960000000     0.0588794  
H295     H      0.724830000000     0.366900000000     0.009180000000     0.0181527  
H296     H      0.729170000000     0.515490000000     0.952010000000     0.033525   
H297     H      0.790070000000     0.475300000000     0.966920000000     0.0436845  
H298     H      0.738000000000     0.344540000000     0.093480000000     0.0724524  
H299     H      0.237880000000     0.627850000000     0.877920000000     0.0727802  
H300     H      0.268870000000     0.592580000000     0.954670000000     0.0613591  
H301     H      0.193230000000     0.488570000000     0.984370000000     0.0231374  
H302     H      0.150570000000     0.426500000000     0.919370000000     0.032721   
H303     H      0.333990000000     0.602570000000     0.930610000000     0.0485956  
H304     H      0.298810000000     0.636140000000     0.848110000000     0.0578059  
H305     H      0.278960000000     0.545870000000     0.867690000000     0.0195448  
H306     H      0.218610000000     0.441140000000     0.988120000000     0.0316537  
H307     H      0.222570000000     0.451560000000     0.899300000000     0.0384719  
H308     H      0.224890000000     0.593680000000     0.825570000000     0.0669337  
H309     H      0.697710000000     0.717910000000     0.671830000000     0.0678449  
H310     H      0.727360000000     0.817880000000     0.621570000000     0.0418302  
H311     H      0.786240000000     0.749500000000     0.643990000000     0.0294236  
H312     H      0.754020000000     0.671870000000     0.599300000000     0.0293874  
H313     H      0.711410000000     0.814610000000     0.559890000000     0.0442184  
H314     H      0.644750000000     0.741810000000     0.662870000000     0.0605722  
H315     H      0.634970000000     0.732560000000     0.578740000000     0.0167847  
H316     H      0.839660000000     0.766060000000     0.603260000000     0.0335164  
H317     H      0.766740000000     0.713690000000     0.544760000000     0.04871    
H318     H      0.623070000000     0.673720000000     0.652100000000     0.0786528  
H319     H      0.234430000000     0.142540000000     0.525590000000     0.0743155  
H320     H      0.342730000000     0.200700000000     0.472970000000     0.0411905  
H321     H      0.354210000000     0.240710000000     0.363050000000     0.0299541  
H322     H      0.289030000000     0.154520000000     0.402090000000     0.0368087  
H323     H      0.357680000000     0.257050000000     0.502620000000     0.0439785  
H324     H      0.279870000000     0.206320000000     0.550280000000     0.0570104  
H325     H      0.257560000000     0.247690000000     0.466790000000     0.022402   
H326     H      0.302650000000     0.265340000000     0.363040000000     0.0317565  
H327     H      0.240650000000     0.170130000000     0.362300000000     0.0337551  
H328     H      0.206480000000     0.188090000000     0.529840000000     0.0720931  
H329     H      0.770080000000     0.967470000000     0.327830000000     0.0737458  
H330     H      0.661010000000     0.893430000000     0.338830000000     0.0410196  
H331     H      0.631120000000     0.827550000000     0.410120000000     0.0370265  
H332     H      0.702280000000     0.867980000000     0.473460000000     0.0358248  
H333     H      0.637470000000     0.943210000000     0.329900000000     0.0454932  
H334     H      0.738610000000     0.011660000000     0.314600000000     0.0654073  
H335     H      0.704820000000     0.991690000000     0.395900000000     0.0252844  
H336     H      0.592590000000     0.835400000000     0.453550000000     0.0332434  
H337     H      0.679450000000     0.916680000000     0.478260000000     0.0378666  
H338     H      0.797370000000     0.028620000000     0.358060000000     0.0778689  
H339     H      0.195260000000     0.962910000000     0.620530000000     0.077645   
H340     H      0.296880000000     0.982550000000     0.592820000000     0.0480402  
H341     H      0.339870000000     0.042880000000     0.499170000000     0.0336816  
H342     H      0.278250000000     0.082100000000     0.481510000000     0.0436209  
H343     H      0.337520000000     0.026870000000     0.638450000000     0.0419547  
H344     H      0.244850000000     0.996680000000     0.668410000000     0.060514   
H345     H      0.290740000000     0.083150000000     0.612200000000     0.0158893  
H346     H      0.386850000000     0.112860000000     0.507840000000     0.0402675  
H347     H      0.310120000000     0.124460000000     0.528770000000     0.0321924  
H348     H      0.196390000000     0.020530000000     0.643100000000     0.0756306  
H349     H      0.027510000000     0.769340000000     0.316980000000     0.0685765  
H350     H      0.111000000000     0.855440000000     0.374810000000     0.0422931  
H351     H      0.961130000000     0.770820000000     0.357120000000     0.0355772  
H352     H      0.926440000000     0.694680000000     0.419310000000     0.0362866  
H353     H      0.104810000000     0.830250000000     0.434880000000     0.0363104  
H354     H      0.105510000000     0.793900000000     0.318490000000     0.063227   
H355     H      0.108620000000     0.762160000000     0.400500000000     0.0114342  
H356     H      0.931920000000     0.781120000000     0.404890000000     0.0403151  
H357     H      0.978600000000     0.738630000000     0.461640000000     0.037713   
H358     H      0.055960000000     0.722680000000     0.325820000000     0.0782104  
H359     H      0.884890000000     0.251090000000     0.593250000000     0.0661634  
H360     H      0.850780000000     0.161590000000     0.557320000000     0.0403042  
H361     H      0.874790000000     0.192350000000     0.469560000000     0.0404292  
H362     H      0.975510000000     0.263890000000     0.452160000000     0.0465732  
H363     H      0.895380000000     0.137290000000     0.591850000000     0.0378162  
H364     H      0.907850000000     0.214100000000     0.637830000000     0.0564277  
H365     H      0.983340000000     0.223280000000     0.585260000000     0.0166832  
H366     H      0.917110000000     0.169100000000     0.444910000000     0.0354126  
H367     H      0.007500000000     0.232140000000     0.493610000000     0.0441942  
H368     H      0.959380000000     0.282270000000     0.620630000000     0.069983   
H369     H      0.809640000000     0.829720000000     0.731170000000     0.0689563  
H370     H      0.930330000000     0.870220000000     0.697750000000     0.0436973  
H371     H      0.817440000000     0.904740000000     0.694650000000     0.0357505  
H372     H      0.831060000000     0.949100000000     0.764780000000     0.0305792  
H373     H      0.979070000000     0.930670000000     0.725920000000     0.0465894  
H374     H      0.850800000000     0.794100000000     0.744620000000     0.060705   
H375     H      0.929730000000     0.866820000000     0.785720000000     0.0203364  
H376     H      0.858390000000     0.975600000000     0.679980000000     0.0380803  
H377     H      0.907060000000     0.995940000000     0.753830000000     0.0379501  
H378     H      0.821530000000     0.808870000000     0.790920000000     0.070562   
H379     H      0.182930000000     0.051050000000     0.189670000000     0.0662198  
H380     H      0.156640000000     0.064400000000     0.268240000000     0.0421111  
H381     H      0.094670000000     0.110960000000     0.249480000000     0.0336942  
H382     H      0.029840000000     0.081370000000     0.181890000000     0.0446229  
H383     H      0.122850000000     0.996040000000     0.294220000000     0.0475245  
H384     H      0.176550000000     0.993480000000     0.228000000000     0.0625159  
H385     H      0.064430000000     0.958870000000     0.225810000000     0.020747   
H386     H      0.020440000000     0.077450000000     0.267010000000     0.0395183  
H387     H      0.986810000000     0.014220000000     0.208840000000     0.0433446  
H388     H      0.141560000000     0.983460000000     0.171030000000     0.0834256  
H389     H      0.847540000000     0.744160000000     0.007250000000     0.0636719  
H390     H      0.763220000000     0.733880000000     0.059170000000     0.039837   
H391     H      0.697010000000     0.773860000000     0.040420000000     0.0496848  
H392     H      0.695950000000     0.797260000000     0.954230000000     0.0311376  
H393     H      0.735440000000     0.663450000000     0.055980000000     0.0406089  
H394     H      0.808710000000     0.673360000000     0.999240000000     0.0566525  
H395     H      0.721080000000     0.678510000000     0.966470000000     0.0193973  
H396     H      0.624040000000     0.734480000000     0.015880000000     0.0437182  
H397     H      0.663410000000     0.727270000000     0.944180000000     0.0270943  
H398     H      0.823670000000     0.720530000000     0.948640000000     0.0741039  
H399     H      0.261530000000     0.122530000000     0.029530000000     0.0720127  
H400     H      0.272820000000     0.168140000000     0.944550000000     0.0550379  
H401     H      0.199650000000     0.196550000000     0.903770000000     0.0429383  
H402     H      0.151340000000     0.216120000000     0.959470000000     0.0378835  
H403     H      0.343160000000     0.219380000000     0.965180000000     0.0521665  
H404     H      0.325250000000     0.178530000000     0.054420000000     0.0690849  
H405     H      0.296590000000     0.242870000000     0.022310000000     0.0157544  
H406     H      0.220360000000     0.266560000000     0.895480000000     0.0289645  
H407     H      0.219230000000     0.269990000000     0.981800000000     0.0392576  
H408     H      0.254360000000     0.156270000000     0.075590000000     0.0660889  
H409     H      0.754690000000     0.110480000000     0.058750000000     0.0611166  
H410     H      0.838420000000     0.104260000000     0.105340000000     0.0439779  
H411     H      0.798710000000     0.022480000000     0.158160000000     0.0355241  
H412     H      0.713060000000     0.948570000000     0.125390000000     0.037651   
H413     H      0.883750000000     0.112940000000     0.059550000000     0.0464447  
H414     H      0.811610000000     0.140240000000     0.017240000000     0.0613272  
H415     H      0.801670000000     0.047130000000     0.013650000000     0.0131626  
H416     H      0.817840000000     0.971140000000     0.153820000000     0.0393545  
H417     H      0.753870000000     0.940870000000     0.083850000000     0.0412091  
H418     H      0.739130000000     0.090800000000     0.999880000000     0.0745566  
H419     H      0.182380000000     0.850830000000     0.849710000000     0.0668772  
H420     H      0.158340000000     0.942430000000     0.823390000000     0.0403093  
H421     H      0.126690000000     0.835050000000     0.906980000000     0.0319832  
H422     H      0.201540000000     0.863660000000     0.971310000000     0.035932   
H423     H      0.192460000000     0.988600000000     0.867900000000     0.045685   
H424     H      0.216020000000     0.900150000000     0.801870000000     0.0622147  
H425     H      0.266380000000     0.973340000000     0.852480000000     0.0132406  
H426     H      0.101050000000     0.853830000000     0.952270000000     0.0424493  
H427     H      0.197000000000     0.923940000000     0.975100000000     0.037769   
H428     H      0.260850000000     0.884500000000     0.845810000000     0.0724537  
H429     H      0.039720000000     0.694590000000     0.988860000000     0.0625323  
H430     H      0.927440000000     0.679690000000     0.924170000000     0.0511246  
H431     H      0.921100000000     0.652740000000     0.075290000000     0.0414473  
H432     H      0.024320000000     0.716710000000     0.056650000000     0.0379974  
H433     H      0.905030000000     0.715760000000     0.954250000000     0.0461665  
H434     H      0.040800000000     0.711470000000     0.926660000000     0.0615563  
H435     H      0.005760000000     0.774610000000     0.932130000000     0.0246356  
H436     H      0.897260000000     0.697500000000     0.045410000000     0.0262122  
H437     H      0.995300000000     0.751970000000     0.081870000000     0.0350428  
H438     H      0.089180000000     0.761310000000     0.965910000000     0.0603672  
H439     H      0.124890000000     0.327070000000     0.895650000000     0.0592102  
H440     H      0.028180000000     0.218580000000     0.872010000000     0.040218   
H441     H      0.118500000000     0.273960000000     0.961050000000     0.0278131  
H442     H      0.084000000000     0.308340000000     0.015310000000     0.0302361  
H443     H      0.963460000000     0.201790000000     0.900990000000     0.0439077  
H444     H      0.081530000000     0.308310000000     0.841380000000     0.0573384  
H445     H      0.991830000000     0.289150000000     0.881810000000     0.0259831  
H446     H      0.089530000000     0.226900000000     0.010560000000     0.0465882  
H447     H      0.010830000000     0.250320000000     0.012160000000     0.0451904  
H448     H      0.088780000000     0.364250000000     0.868260000000     0.0763476  
N1       N      0.472530000000     0.413200000000     0.773470000000    -0.179559   
N2       N      0.528220000000     0.472910000000     0.692960000000    -0.16316    
N3       N      0.491450000000     0.535370000000     0.167160000000    -0.176301   
N4       N      0.468500000000     0.511270000000     0.262710000000    -0.163213   
N5       N      0.427330000000     0.742160000000     0.540870000000    -0.180726   
N6       N      0.479510000000     0.693610000000     0.502050000000    -0.164933   
N7       N      0.540090000000     0.302590000000     0.452580000000    -0.177227   
N8       N      0.560790000000     0.217110000000     0.444760000000    -0.166513   
N9       N      0.590150000000     0.035570000000     0.793710000000    -0.174739   
N10      N      0.589890000000     0.038290000000     0.694940000000    -0.16155    
N11      N      0.404670000000     0.920260000000     0.191240000000    -0.175272   
N12      N      0.411830000000     0.927000000000     0.288830000000    -0.161449   
N13      N      0.531440000000     0.811830000000     0.892890000000    -0.176327   
N14      N      0.515060000000     0.704930000000     0.899320000000    -0.157779   
N15      N      0.447680000000     0.242940000000     0.033800000000    -0.17115    
N16      N      0.419330000000     0.131500000000     0.043670000000    -0.164966   
N17      N      0.719580000000     0.193420000000     0.468820000000    -0.173219   
N18      N      0.825880000000     0.281170000000     0.432040000000    -0.165026   
N19      N      0.153260000000     0.701140000000     0.544520000000    -0.180687   
N20      N      0.269450000000     0.781110000000     0.517040000000    -0.163999   
N21      N      0.698560000000     0.530900000000     0.363180000000    -0.178851   
N22      N      0.785730000000     0.524670000000     0.426200000000    -0.161123   
N23      N      0.308470000000     0.484940000000     0.551450000000    -0.178785   
N24      N      0.206090000000     0.480900000000     0.500910000000    -0.164095   
N25      N      0.951630000000     0.506230000000     0.761560000000    -0.175595   
N26      N      0.974690000000     0.537530000000     0.666110000000    -0.162421   
N27      N      0.023600000000     0.467660000000     0.194960000000    -0.177126   
N28      N      0.076380000000     0.479750000000     0.285940000000    -0.162881   
N29      N      0.717210000000     0.159060000000     0.902240000000    -0.1727     
N30      N      0.821740000000     0.263030000000     0.900850000000    -0.159974   
N31      N      0.147840000000     0.683570000000     0.085460000000    -0.174959   
N32      N      0.255140000000     0.780270000000     0.061970000000    -0.159105   
N33      N      0.769060000000     0.443530000000     0.036730000000    -0.178723   
N34      N      0.669100000000     0.434680000000     0.976640000000    -0.164899   
N35      N      0.193270000000     0.509900000000     0.891790000000    -0.174968   
N36      N      0.281230000000     0.523900000000     0.964850000000    -0.162451   
N37      N      0.690360000000     0.697640000000     0.578200000000    -0.175767   
N38      N      0.782820000000     0.801520000000     0.585990000000    -0.161433   
N39      N      0.235820000000     0.176750000000     0.434660000000    -0.175632   
N40      N      0.351670000000     0.268190000000     0.427370000000    -0.1633     
N41      N      0.732340000000     0.934270000000     0.420570000000    -0.173556   
N42      N      0.609840000000     0.890350000000     0.392080000000    -0.164027   
N43      N      0.248260000000     0.044240000000     0.550110000000    -0.175911   
N44      N      0.365460000000     0.059420000000     0.569960000000    -0.166053   
N45      N      0.016590000000     0.720710000000     0.409870000000    -0.176831   
N46      N      0.027290000000     0.827140000000     0.401960000000    -0.162945   
N47      N      0.960560000000     0.261830000000     0.525530000000    -0.171738   
N48      N      0.904630000000     0.147660000000     0.518200000000    -0.163454   
N49      N      0.890380000000     0.917780000000     0.782690000000    -0.178073   
N50      N      0.908040000000     0.933460000000     0.685330000000    -0.162168   
N51      N      0.069710000000     0.030030000000     0.188130000000    -0.176822   
N52      N      0.068580000000     0.033710000000     0.284430000000    -0.163465   
N53      N      0.752630000000     0.761590000000     0.967540000000    -0.180553   
N54      N      0.672770000000     0.691930000000     0.035640000000    -0.161525   
N55      N      0.208530000000     0.191680000000     0.000460000000    -0.179088   
N56      N      0.286990000000     0.248160000000     0.928580000000    -0.162836   
N57      N      0.739420000000     0.008040000000     0.066470000000    -0.17391    
N58      N      0.854830000000     0.039420000000     0.103640000000    -0.163478   
N59      N      0.243200000000     0.926660000000     0.917950000000    -0.178095   
N60      N      0.126860000000     0.909730000000     0.891240000000    -0.162043   
N61      N      0.003640000000     0.767850000000     0.007220000000    -0.183516   
N62      N      0.922570000000     0.660550000000     0.999760000000    -0.166099   
N63      N      0.034390000000     0.303340000000     0.950390000000    -0.181976   
N64      N      0.034900000000     0.206900000000     0.945860000000    -0.165835   
O1       O      0.165380000000     0.106520000000     0.980500000000    -0.389245   
O2       O      0.115830000000     0.131900000000     0.022760000000    -0.362738   
O3       O      0.910330000000     0.971010000000     0.841990000000    -0.38253    
O4       O      0.918180000000     0.894400000000     0.856180000000    -0.386698   
O5       O      0.990010000000     0.121640000000     0.922270000000    -0.369993   
O6       O      0.023810000000     0.137390000000     0.997780000000    -0.378353   
O7       O      0.097620000000     0.972340000000     0.890190000000    -0.388247   
O8       O      0.034360000000     0.886620000000     0.913290000000    -0.345936   
O9       O      0.145470000000     0.087420000000     0.886520000000    -0.343388   
O10      O      0.181030000000     0.011170000000     0.975340000000    -0.528687   
O11      O      0.979130000000     0.081170000000     0.836420000000    -0.517435   
O12      O      0.855510000000     0.028700000000     0.895380000000    -0.368998   
O13      O      0.038630000000     0.064310000000     0.953120000000    -0.501852   
O14      O      0.005710000000     0.983870000000     0.904990000000    -0.632289   
O15      O      0.012980000000     0.839760000000     0.041280000000    -0.384627   
O16      O      0.969450000000     0.821440000000     0.968200000000    -0.378489   
O17      O      0.872750000000     0.974530000000     0.084670000000    -0.371568   
O18      O      0.939020000000     0.061910000000     0.067590000000    -0.368358   
O19      O      0.800220000000     0.847140000000     0.987270000000    -0.386657   
O20      O      0.849310000000     0.817790000000     0.948970000000    -0.376423   
O21      O      0.051590000000     0.974990000000     0.130530000000    -0.381255   
O22      O      0.048250000000     0.053510000000     0.113490000000    -0.384886   
O23      O      0.964190000000     0.855820000000     0.123140000000    -0.530593   
O24      O      0.111330000000     0.926050000000     0.091530000000    -0.355419   
O25      O      0.815900000000     0.860360000000     0.080400000000    -0.340067   
O26      O      0.789470000000     0.943830000000     0.995360000000    -0.529467   
O27      O      0.927440000000     0.883590000000     0.017710000000    -0.628976   
O28      O      0.961350000000     0.965490000000     0.065810000000    -0.495202   
O29      O      0.041190000000     0.932110000000     0.983330000000    -0.496642   
O30      O      0.924780000000     0.019100000000     0.987160000000    -0.634039   
O31      O      0.075770000000     0.013400000000     0.030910000000    -0.632505   
O32      O      0.891740000000     0.935470000000     0.940130000000    -0.50232    
O33      O      0.979190000000     0.870310000000     0.419500000000    -0.357883   
O34      O      0.077320000000     0.914670000000     0.426520000000    -0.364917   
O35      O      0.828630000000     0.966450000000     0.403540000000    -0.375157   
O36      O      0.805850000000     0.955020000000     0.479330000000    -0.366838   
O37      O      0.998980000000     0.014640000000     0.335360000000    -0.368676   
O38      O      0.081460000000     0.008350000000     0.360630000000    -0.371438   
O39      O      0.862120000000     0.836290000000     0.541820000000    -0.372801   
O40      O      0.824040000000     0.889720000000     0.554750000000    -0.358068   
O41      O      0.863550000000     0.795800000000     0.460480000000    -0.348692   
O42      O      0.976730000000     0.819420000000     0.530690000000    -0.535457   
O43      O      0.878810000000     0.923690000000     0.343470000000    -0.523716   
O44      O      0.921310000000     0.061490000000     0.349600000000    -0.355963   
O45      O      0.981850000000     0.940280000000     0.423200000000    -0.468972   
O46      O      0.891560000000     0.927420000000     0.464020000000    -0.624316   
O47      O      0.977210000000     0.953620000000     0.633630000000    -0.371907   
O48      O      0.899380000000     0.967930000000     0.610720000000    -0.370608   
O49      O      0.144220000000     0.144900000000     0.460590000000    -0.372832   
O50      O      0.163530000000     0.090010000000     0.423410000000    -0.36144    
O51      O      0.972270000000     0.128670000000     0.496990000000    -0.376201   
O52      O      0.894720000000     0.062450000000     0.536480000000    -0.369066   
O53      O      0.152840000000     0.017000000000     0.565960000000    -0.374874   
O54      O      0.174470000000     0.019770000000     0.491420000000    -0.365536   
O55      O      0.098040000000     0.055610000000     0.629500000000    -0.53595    
O56      O      0.067230000000     0.923160000000     0.623810000000    -0.351658   
O57      O      0.091960000000     0.164000000000     0.542860000000    -0.357148   
O58      O      0.055650000000     0.173550000000     0.424360000000    -0.525127   
O59      O      0.999730000000     0.040660000000     0.549610000000    -0.61897    
O60      O      0.090250000000     0.050040000000     0.507800000000    -0.498824   
O61      O      0.950360000000     0.929700000000     0.550470000000    -0.491143   
O62      O      0.032900000000     0.051600000000     0.420160000000    -0.624146   
O63      O      0.043070000000     0.937350000000     0.512340000000    -0.62533    
O64      O      0.941710000000     0.042250000000     0.460070000000    -0.498371   
O65      O      0.026020000000     0.356790000000     0.998280000000    -0.376036   
O66      O      0.013440000000     0.368300000000     0.919200000000    -0.39039    
O67      O      0.830650000000     0.408910000000     0.057710000000    -0.392505   
O68      O      0.865420000000     0.495690000000     0.063170000000    -0.349864   
O69      O      0.858800000000     0.318380000000     0.959250000000    -0.365129   
O70      O      0.902140000000     0.348930000000     0.890160000000    -0.353783   
O71      O      0.019960000000     0.437420000000     0.124410000000    -0.383224   
O72      O      0.991960000000     0.500700000000     0.128510000000    -0.382092   
O73      O      0.970770000000     0.332410000000     0.087880000000    -0.344908   
O74      O      0.113590000000     0.435040000000     0.070440000000    -0.535369   
O75      O      0.782900000000     0.312530000000     0.018480000000    -0.519676   
O76      O      0.780620000000     0.392360000000     0.935000000000    -0.367297   
O77      O      0.945470000000     0.386720000000     0.980590000000    -0.482495   
O78      O      0.933610000000     0.430070000000     0.051460000000    -0.61786    
O79      O      0.130380000000     0.626700000000     0.030570000000    -0.381222   
O80      O      0.053960000000     0.613110000000     0.071600000000    -0.361123   
O81      O      0.939900000000     0.526270000000     0.833190000000    -0.381231   
O82      O      0.973280000000     0.467230000000     0.829770000000    -0.384813   
O83      O      0.923990000000     0.599960000000     0.957010000000    -0.383914   
O84      O      0.940540000000     0.594350000000     0.035930000000    -0.373731   
O85      O      0.150470000000     0.554050000000     0.915640000000    -0.384043   
O86      O      0.092250000000     0.470640000000     0.889990000000    -0.363435   
O87      O      0.131040000000     0.649380000000     0.925570000000    -0.532535   
O88      O      0.189950000000     0.579030000000     0.005960000000    -0.342751   
O89      O      0.982430000000     0.627260000000     0.870530000000    -0.348415   
O90      O      0.841960000000     0.521530000000     0.885570000000    -0.527792   
O91      O      0.012350000000     0.574590000000     0.977130000000    -0.634239   
O92      O      0.024230000000     0.531810000000     0.906850000000    -0.503952   
O93      O      0.052070000000     0.514350000000     0.042020000000    -0.501442   
O94      O      0.903220000000     0.445250000000     0.915410000000    -0.629074   
O95      O      0.060460000000     0.469600000000     0.973890000000    -0.633156   
O96      O      0.896900000000     0.490450000000     0.985350000000    -0.488634   
O97      O      0.959140000000     0.337180000000     0.548030000000    -0.370335   
O98      O      0.003630000000     0.343180000000     0.482760000000    -0.363407   
O99      O      0.820700000000     0.471540000000     0.465850000000    -0.391465   
O100     O      0.875640000000     0.560100000000     0.469860000000    -0.353193   
O101     O      0.863470000000     0.364820000000     0.394830000000    -0.396224   
O102     O      0.925260000000     0.339080000000     0.433250000000    -0.342887   
O103     O      0.970660000000     0.482950000000     0.614070000000    -0.365851   
O104     O      0.948600000000     0.550200000000     0.588520000000    -0.375678   
O105     O      0.860650000000     0.365470000000     0.581670000000    -0.371283   
O106     O      0.995800000000     0.396460000000     0.628060000000    -0.52484    
O107     O      0.778990000000     0.371780000000     0.448270000000    -0.522557   
O108     O      0.846070000000     0.465760000000     0.358090000000    -0.363399   
O109     O      0.930640000000     0.400330000000     0.478590000000    -0.496442   
O110     O      0.905980000000     0.465540000000     0.513330000000    -0.609804   
O111     O      0.108990000000     0.610320000000     0.562650000000    -0.37345    
O112     O      0.054180000000     0.646420000000     0.528290000000    -0.362256   
O113     O      0.060100000000     0.525100000000     0.336490000000    -0.375827   
O114     O      0.043430000000     0.439420000000     0.358770000000    -0.384187   
O115     O      0.033800000000     0.651640000000     0.396770000000    -0.373173   
O116     O      0.982640000000     0.644100000000     0.458880000000    -0.354939   
O117     O      0.156860000000     0.522600000000     0.461870000000    -0.362322   
O118     O      0.114220000000     0.433960000000     0.463690000000    -0.364119   
O119     O      0.204550000000     0.622740000000     0.504480000000    -0.537381   
O120     O      0.149590000000     0.517460000000     0.582450000000    -0.372334   
O121     O      0.118510000000     0.634080000000     0.357830000000    -0.338896   
O122     O      0.968720000000     0.567550000000     0.322090000000    -0.525284   
O123     O      0.057420000000     0.588320000000     0.467550000000    -0.624008   
O124     O      0.079740000000     0.521640000000     0.435040000000    -0.470059   
O125     O      0.020160000000     0.519420000000     0.548260000000    -0.47952    
O126     O      0.964920000000     0.467230000000     0.394840000000    -0.616584   
O127     O      0.047860000000     0.451760000000     0.518570000000    -0.623331   
O128     O      0.939830000000     0.535500000000     0.427600000000    -0.487274   
O129     O      0.339540000000     0.957900000000     0.903970000000    -0.380462   
O130     O      0.312790000000     0.944810000000     0.978940000000    -0.365176   
O131     O      0.481900000000     0.830220000000     0.940430000000    -0.382785   
O132     O      0.574780000000     0.895660000000     0.924530000000    -0.368644   
O133     O      0.340650000000     0.813100000000     0.024960000000    -0.376395   
O134     O      0.315920000000     0.872360000000     0.048210000000    -0.355068   
O135     O      0.517190000000     0.016350000000     0.842280000000    -0.36477    
O136     O      0.592070000000     0.999460000000     0.868980000000    -0.370625   
O137     O      0.394880000000     0.927410000000     0.837510000000    -0.350658   
O138     O      0.437300000000     0.060540000000     0.860810000000    -0.533588   
O139     O      0.360310000000     0.795150000000     0.937760000000    -0.520282   
O140     O      0.446690000000     0.791300000000     0.039220000000    -0.348492   
O141     O      0.394370000000     0.917520000000     0.962970000000    -0.496331   
O142     O      0.483700000000     0.926040000000     0.924980000000    -0.623324   
O143     O      0.633770000000     0.128000000000     0.942920000000    -0.364531   
O144     O      0.664820000000     0.069430000000     0.929160000000    -0.356087   
O145     O      0.474850000000     0.935580000000     0.141770000000    -0.378735   
O146     O      0.397680000000     0.949420000000     0.114600000000    -0.369806   
O147     O      0.643120000000     0.975410000000     0.078980000000    -0.371459   
O148     O      0.671640000000     0.992980000000     0.004020000000    -0.375169   
O149     O      0.489320000000     0.114490000000     0.024680000000    -0.376047   
O150     O      0.400530000000     0.044470000000     0.045960000000    -0.372567   
O151     O      0.622180000000     0.134550000000     0.053140000000    -0.532996   
O152     O      0.556710000000     0.166600000000     0.954650000000    -0.339653   
O153     O      0.598570000000     0.023460000000     0.138230000000    -0.349262   
O154     O      0.545620000000     0.884920000000     0.125840000000    -0.523227   
O155     O      0.591620000000     0.026780000000     0.018190000000    -0.624531   
O156     O      0.500830000000     0.017890000000     0.056860000000    -0.494882   
O157     O      0.542040000000     0.037170000000     0.929510000000    -0.489361   
O158     O      0.443490000000     0.904920000000     0.053120000000    -0.634926   
O159     O      0.449650000000     0.029780000000     0.967190000000    -0.622836   
O160     O      0.535350000000     0.912110000000     0.014890000000    -0.489559   
O161     O      0.505790000000     0.128820000000     0.427320000000    -0.378608   
O162     O      0.552490000000     0.150200000000     0.499160000000    -0.371015   
O163     O      0.359100000000     0.849240000000     0.537450000000    -0.344571   
O164     O      0.343260000000     0.828970000000     0.463810000000    -0.361848   
O165     O      0.406340000000     0.005650000000     0.589970000000    -0.388948   
O166     O      0.460830000000     0.085180000000     0.553290000000    -0.341389   
O167     O      0.429590000000     0.979640000000     0.348180000000    -0.372998   
O168     O      0.423520000000     0.897010000000     0.364860000000    -0.376167   
O169     O      0.362950000000     0.027220000000     0.409360000000    -0.363721   
O170     O      0.480390000000     0.087920000000     0.345050000000    -0.517062   
O171     O      0.295040000000     0.935610000000     0.497110000000    -0.530309   
O172     O      0.313680000000     0.899840000000     0.591300000000    -0.351413   
O173     O      0.445110000000     0.031180000000     0.496270000000    -0.482691   
O174     O      0.397040000000     0.942580000000     0.451300000000    -0.617846   
O175     O      0.584680000000     0.955710000000     0.393410000000    -0.375107   
O176     O      0.521360000000     0.871890000000     0.420290000000    -0.361666   
O177     O      0.573350000000     0.986330000000     0.635450000000    -0.381235   
O178     O      0.569680000000     0.065060000000     0.619890000000    -0.381227   
O179     O      0.476600000000     0.829600000000     0.561680000000    -0.362686   
O180     O      0.434450000000     0.810270000000     0.488520000000    -0.38416    
O181     O      0.667860000000     0.104900000000     0.461400000000    -0.389658   
O182     O      0.641450000000     0.139130000000     0.515780000000    -0.354095   
O183     O      0.682420000000     0.001880000000     0.491730000000    -0.539493   
O184     O      0.664920000000     0.058980000000     0.390870000000    -0.336462   
O185     O      0.614390000000     0.914930000000     0.585770000000    -0.37343    
O186     O      0.492660000000     0.877250000000     0.644460000000    -0.519647   
O187     O      0.542640000000     0.925220000000     0.492200000000    -0.626771   
O188     O      0.590390000000     0.015660000000     0.535360000000    -0.495956   
O189     O      0.508280000000     0.980440000000     0.412620000000    -0.486354   
O190     O      0.479970000000     0.978980000000     0.574680000000    -0.618526   
O191     O      0.551500000000     0.062210000000     0.456800000000    -0.638329   
O192     O      0.436900000000     0.894580000000     0.528830000000    -0.45857    
O193     O      0.451910000000     0.322310000000     0.054030000000    -0.363792   
O194     O      0.465400000000     0.313950000000     0.980050000000    -0.363856   
O195     O      0.319300000000     0.469390000000     0.993370000000    -0.394515   
O196     O      0.381780000000     0.557440000000     0.984290000000    -0.351733   
O197     O      0.314370000000     0.335720000000     0.933270000000    -0.387865   
O198     O      0.384440000000     0.312480000000     0.925680000000    -0.358251   
O199     O      0.475940000000     0.475830000000     0.115070000000    -0.370768   
O200     O      0.470000000000     0.551690000000     0.089000000000    -0.381641   
O201     O      0.364100000000     0.356690000000     0.093900000000    -0.364365   
O202     O      0.508550000000     0.394470000000     0.126190000000    -0.52386    
O203     O      0.253780000000     0.374120000000     0.961200000000    -0.513758   
O204     O      0.321360000000     0.453580000000     0.875620000000    -0.365435   
O205     O      0.407190000000     0.381250000000     0.986070000000    -0.500414   
O206     O      0.406990000000     0.460490000000     0.024080000000    -0.610999   
O207     O      0.639170000000     0.605250000000     0.022840000000    -0.392215   
O208     O      0.572380000000     0.633970000000     0.024360000000    -0.359929   
O209     O      0.486050000000     0.474460000000     0.823210000000    -0.378846   
O210     O      0.487580000000     0.396860000000     0.851590000000    -0.381348   
O211     O      0.513250000000     0.626670000000     0.885420000000    -0.361415   
O212     O      0.491590000000     0.636550000000     0.956890000000    -0.357063   
O213     O      0.622760000000     0.478540000000     0.936280000000    -0.362715   
O214     O      0.572080000000     0.390510000000     0.947350000000    -0.356075   
O215     O      0.697340000000     0.581350000000     0.972630000000    -0.527792   
O216     O      0.636240000000     0.489850000000     0.062460000000    -0.374972   
O217     O      0.589420000000     0.586810000000     0.842990000000    -0.346654   
O218     O      0.443590000000     0.555450000000     0.818710000000    -0.524355   
O219     O      0.548320000000     0.566680000000     0.954100000000    -0.632183   
O220     O      0.549800000000     0.488070000000     0.917850000000    -0.470572   
O221     O      0.525470000000     0.506460000000     0.041200000000    -0.487085   
O222     O      0.426800000000     0.440230000000     0.898060000000    -0.622286   
O223     O      0.530420000000     0.427090000000     0.007890000000    -0.631578   
O224     O      0.425310000000     0.520700000000     0.932680000000    -0.48789    
O225     O      0.539810000000     0.360910000000     0.500660000000    -0.373434   
O226     O      0.523050000000     0.371270000000     0.422350000000    -0.383362   
O227     O      0.363810000000     0.442760000000     0.560720000000    -0.396552   
O228     O      0.409600000000     0.531330000000     0.562430000000    -0.358241   
O229     O      0.371220000000     0.340500000000     0.464490000000    -0.375664   
O230     O      0.417280000000     0.355200000000     0.398160000000    -0.363095   
O231     O      0.544390000000     0.451190000000     0.624290000000    -0.374961   
O232     O      0.517640000000     0.516060000000     0.624510000000    -0.390508   
O233     O      0.485580000000     0.344290000000     0.589080000000    -0.344016   
O234     O      0.632630000000     0.439110000000     0.570460000000    -0.526292   
O235     O      0.300240000000     0.345500000000     0.518410000000    -0.518397   
O236     O      0.308250000000     0.430730000000     0.440010000000    -0.359201   
O237     O      0.462040000000     0.402430000000     0.483300000000    -0.4909     
O238     O      0.461980000000     0.451320000000     0.550610000000    -0.621841   
O239     O      0.665230000000     0.635970000000     0.525740000000    -0.385492   
O240     O      0.594600000000     0.629920000000     0.569190000000    -0.365505   
O241     O      0.468610000000     0.542600000000     0.332280000000    -0.373142   
O242     O      0.484460000000     0.471190000000     0.331640000000    -0.389071   
O243     O      0.470600000000     0.630650000000     0.455550000000    -0.375357   
O244     O      0.501720000000     0.628800000000     0.532190000000    -0.37686    
O245     O      0.648050000000     0.565740000000     0.391850000000    -0.372053   
O246     O      0.600730000000     0.477810000000     0.379350000000    -0.36947    
O247     O      0.707610000000     0.652420000000     0.442810000000    -0.519528   
O248     O      0.698690000000     0.541910000000     0.503320000000    -0.364663   
O249     O      0.527760000000     0.648430000000     0.367530000000    -0.340181   
O250     O      0.380760000000     0.553940000000     0.385950000000    -0.523872   
O251     O      0.552420000000     0.592290000000     0.473630000000    -0.634458   
O252     O      0.550950000000     0.541160000000     0.407860000000    -0.485245   
O253     O      0.583240000000     0.525730000000     0.541520000000    -0.501169   
O254     O      0.427720000000     0.466580000000     0.415960000000    -0.628382   
O255     O      0.581880000000     0.472870000000     0.471420000000    -0.62502    
O256     O      0.430680000000     0.519300000000     0.484880000000    -0.490336   
Zr1      Zr     0.095750000000     0.021720000000     0.950980000000     1.39492    
Zr2      Zr     0.947770000000     0.025980000000     0.908920000000     1.37615    
Zr3      Zr     0.018680000000     0.922800000000     0.062060000000     1.37612    
Zr4      Zr     0.872010000000     0.928810000000     0.019610000000     1.38949    
Zr5      Zr     0.016390000000     0.055110000000     0.032290000000     1.375      
Zr6      Zr     0.950480000000     0.893270000000     0.938210000000     1.36258    
Zr7      Zr     0.942980000000     0.879110000000     0.489550000000     1.36469    
Zr8      Zr     0.932740000000     0.990820000000     0.398570000000     1.37232    
Zr9      Zr     0.048840000000     0.989020000000     0.573290000000     1.36993    
Zr10     Zr     0.041970000000     0.100790000000     0.482900000000     1.37608    
Zr11     Zr     0.082450000000     0.999860000000     0.444980000000     1.35292    
Zr12     Zr     0.899330000000     0.979470000000     0.525850000000     1.35401    
Zr13     Zr     0.016450000000     0.419870000000     0.043000000000     1.37422    
Zr14     Zr     0.862370000000     0.396320000000     0.987260000000     1.36823    
Zr15     Zr     0.094420000000     0.563420000000     0.971150000000     1.39011    
Zr16     Zr     0.939400000000     0.539540000000     0.915120000000     1.38403    
Zr17     Zr     0.988860000000     0.437310000000     0.909940000000     1.36793    
Zr18     Zr     0.969010000000     0.525850000000     0.048500000000     1.3662     
Zr19     Zr     0.959740000000     0.424250000000     0.555270000000     1.36905    
Zr20     Zr     0.878710000000     0.440690000000     0.434540000000     1.38483    
Zr21     Zr     0.108130000000     0.547060000000     0.512710000000     1.37653    
Zr22     Zr     0.027870000000     0.562700000000     0.390850000000     1.37525    
Zr23     Zr     0.017250000000     0.425780000000     0.440000000000     1.3577     
Zr24     Zr     0.968360000000     0.562360000000     0.505260000000     1.35433    
Zr25     Zr     0.443730000000     0.984420000000     0.901880000000     1.37406    
Zr26     Zr     0.435150000000     0.860230000000     0.987440000000     1.38058    
Zr27     Zr     0.549600000000     0.083260000000     0.994270000000     1.36655    
Zr28     Zr     0.542440000000     0.959950000000     0.079440000000     1.37339    
Zr29     Zr     0.400970000000     0.962100000000     0.029450000000     1.35322    
Zr30     Zr     0.584000000000     0.979290000000     0.952770000000     1.34145    
Zr31     Zr     0.458540000000     0.030680000000     0.417120000000     1.37124    
Zr32     Zr     0.386840000000     0.943310000000     0.532550000000     1.35903    
Zr33     Zr     0.600490000000     0.011870000000     0.455290000000     1.39285    
Zr34     Zr     0.528370000000     0.927890000000     0.570870000000     1.36848    
Zr35     Zr     0.540300000000     0.066870000000     0.536550000000     1.35719    
Zr36     Zr     0.448690000000     0.892580000000     0.448600000000     1.35195    
Zr37     Zr     0.457670000000     0.412860000000     0.057550000000     1.36817    
Zr38     Zr     0.357920000000     0.428450000000     0.950560000000     1.37777    
Zr39     Zr     0.597210000000     0.519620000000     0.991140000000     1.37931    
Zr40     Zr     0.497840000000     0.533530000000     0.882610000000     1.37203    
Zr41     Zr     0.479450000000     0.394800000000     0.934800000000     1.36574    
Zr42     Zr     0.475960000000     0.554780000000     0.004900000000     1.34832    
Zr43     Zr     0.537890000000     0.430170000000     0.542990000000     1.37955    
Zr44     Zr     0.386970000000     0.424070000000     0.489060000000     1.37251    
Zr45     Zr     0.625660000000     0.567930000000     0.469700000000     1.37761    
Zr46     Zr     0.475360000000     0.562750000000     0.413850000000     1.37592    
Zr47     Zr     0.504330000000     0.445250000000     0.411080000000     1.36646    
Zr48     Zr     0.507250000000     0.547900000000     0.545130000000     1.38024    


