data_structure

_audit_creation_method RASPA-1.0
_audit_creation_date 2023-6-4
_audit_author_name 'Poobodin Mano'

_cell_length_a    26.7668
_cell_length_b    29.6812
_cell_length_c    30.2829
_cell_angle_alpha 82.7352
_cell_angle_beta  96.3434
_cell_angle_gamma 119.445
_cell_volume      20750.4

_symmetry_cell_setting          triclinic
_symmetry_space_group_name_Hall 'P 1'
_symmetry_space_group_name_H-M  'P 1'
_symmetry_Int_Tables_number     1

_symmetry_equiv_pos_as_xyz 'x,y,z'

loop_
_atom_site_label
_atom_site_type_symbol
_atom_site_fract_x
_atom_site_fract_y
_atom_site_fract_z
_atom_site_charge
C1       C      0.162510000000     0.119380000000     0.998560000000     0.339027   
C2       C      0.926680000000     0.951800000000     0.812110000000     0.336637   
C3       C      0.032530000000     0.153370000000     0.951470000000     0.355358   
C4       C      0.063530000000     0.897020000000     0.914160000000     0.304614   
C5       C      0.940870000000     0.800190000000     0.986240000000     0.354171   
C6       C      0.899300000000     0.025960000000     0.060400000000     0.315061   
C7       C      0.800470000000     0.824920000000     0.943910000000     0.33743    
C8       C      0.034420000000     0.999810000000     0.126540000000     0.341219   
C9       C      0.023700000000     0.852320000000     0.418600000000     0.341422   
C10      C      0.792800000000     0.958930000000     0.422880000000     0.333972   
C11      C      0.026080000000     0.993020000000     0.316010000000     0.342174   
C12      C      0.801910000000     0.835830000000     0.526610000000     0.328153   
C13      C      0.931620000000     0.956730000000     0.621540000000     0.338274   
C14      C      0.160450000000     0.115280000000     0.411830000000     0.327814   
C15      C      0.934600000000     0.100880000000     0.513640000000     0.338348   
C16      C      0.169650000000     0.003450000000     0.513390000000     0.342562   
C17      C      0.025210000000     0.338620000000     0.955870000000     0.354045   
C18      C      0.826460000000     0.459140000000     0.029760000000     0.331542   
C19      C      0.855570000000     0.309140000000     0.902510000000     0.333852   
C20      C      0.990560000000     0.458100000000     0.125100000000     0.342799   
C21      C      0.106960000000     0.633910000000     0.032190000000     0.329648   
C22      C      0.972900000000     0.491900000000     0.805860000000     0.350534   
C23      C      0.941790000000     0.611240000000     0.976800000000     0.353075   
C24      C      0.127860000000     0.494930000000     0.886820000000     0.318998   
C25      C      0.963520000000     0.305270000000     0.500900000000     0.330067   
C26      C      0.832040000000     0.507470000000     0.489870000000     0.331395   
C27      C      0.839550000000     0.318810000000     0.418130000000     0.338704   
C28      C      0.977190000000     0.502840000000     0.616050000000     0.351213   
C29      C      0.117130000000     0.627810000000     0.526460000000     0.327735   
C30      C      0.989810000000     0.453560000000     0.314740000000     0.349572   
C31      C      0.001410000000     0.650310000000     0.429480000000     0.330393   
C32      C      0.126020000000     0.452170000000     0.426130000000     0.322321   
C33      C      0.293690000000     0.945720000000     0.928380000000     0.337174   
C34      C      0.518320000000     0.842840000000     0.920020000000     0.336656   
C35      C      0.300380000000     0.834060000000     0.026370000000     0.329332   
C36      C      0.530160000000     0.990840000000     0.819090000000     0.337735   
C37      C      0.661560000000     0.108740000000     0.912510000000     0.325351   
C38      C      0.439640000000     0.957170000000     0.126460000000     0.333316   
C39      C      0.669590000000     0.987400000000     0.017310000000     0.334387   
C40      C      0.442090000000     0.097890000000     0.019800000000     0.337768   
C41      C      0.514790000000     0.145780000000     0.455200000000     0.356206   
C42      C      0.312250000000     0.812430000000     0.460600000000     0.345235   
C43      C      0.392720000000     0.029440000000     0.557750000000     0.339329   
C44      C      0.424920000000     0.947410000000     0.317100000000     0.339762   
C45      C      0.564220000000     0.927280000000     0.377420000000     0.319236   
C46      C      0.544600000000     0.001990000000     0.628560000000     0.333454   
C47      C      0.458120000000     0.804420000000     0.489330000000     0.36342    
C48      C      0.657780000000     0.130780000000     0.493630000000     0.342451   
C49      C      0.463710000000     0.300930000000     0.000370000000     0.332759   
C50      C      0.332960000000     0.503940000000     0.984050000000     0.333838   
C51      C      0.339360000000     0.310350000000     0.915170000000     0.33801    
C52      C      0.468140000000     0.496970000000     0.110430000000     0.342071   
C53      C      0.621350000000     0.629590000000     0.016400000000     0.331762   
C54      C      0.486200000000     0.443660000000     0.810460000000     0.350768   
C55      C      0.499580000000     0.643590000000     0.918230000000     0.328073   
C56      C      0.625780000000     0.445350000000     0.923040000000     0.322032   
C57      C      0.523750000000     0.339270000000     0.451870000000     0.35852    
C58      C      0.328790000000     0.461980000000     0.526360000000     0.332246   
C59      C      0.357810000000     0.312610000000     0.398470000000     0.335612   
C60      C      0.491340000000     0.457930000000     0.621240000000     0.345928   
C61      C      0.609510000000     0.635330000000     0.530880000000     0.32902    
C62      C      0.469830000000     0.491250000000     0.300830000000     0.346932   
C63      C      0.442700000000     0.611820000000     0.471970000000     0.359717   
C64      C      0.631410000000     0.497870000000     0.384100000000     0.318473   
C65      C      0.448170000000     0.456250000000     0.735210000000     0.000485115
C66      C      0.481080000000     0.437670000000     0.762680000000    -0.0910779  
C67      C      0.513980000000     0.421230000000     0.743400000000    -0.00248797 
C68      C      0.516630000000     0.426630000000     0.696950000000    -0.00481014 
C69      C      0.486650000000     0.448760000000     0.669800000000    -0.086603   
C70      C      0.451160000000     0.462020000000     0.689350000000    -0.00701804 
C71      C      0.482070000000     0.543500000000     0.178940000000    -0.00694719 
C72      C      0.461650000000     0.497400000000     0.158180000000    -0.0854001  
C73      C      0.439400000000     0.449760000000     0.184550000000    -0.00761748 
C74      C      0.441420000000     0.448220000000     0.230610000000    -0.00482452 
C75      C      0.464690000000     0.494170000000     0.251740000000    -0.0876911  
C76      C      0.483300000000     0.541840000000     0.225610000000    -0.00501121 
C77      C      0.430170000000     0.714900000000     0.520530000000    -0.00103569 
C78      C      0.456060000000     0.755450000000     0.487780000000    -0.0959848  
C79      C      0.473980000000     0.747680000000     0.448960000000     0.00029804 
C80      C      0.465460000000     0.699390000000     0.442390000000    -0.0056409  
C81      C      0.440120000000     0.658630000000     0.475090000000    -0.0942993  
C82      C      0.422170000000     0.666230000000     0.514170000000    -0.00191817 
C83      C      0.503080000000     0.217120000000     0.412990000000    -0.00559407 
C84      C      0.526670000000     0.199390000000     0.450080000000    -0.0931695  
C85      C      0.557690000000     0.231960000000     0.484390000000    -0.00367139 
C86      C      0.559690000000     0.279450000000     0.483890000000    -0.00306647 
C87      C      0.531430000000     0.294870000000     0.448820000000    -0.0940867  
C88      C      0.505560000000     0.264810000000     0.412330000000    -0.00189322 
C89      C      0.528370000000     0.032590000000     0.742240000000    -0.00266239 
C90      C      0.542990000000     0.999430000000     0.771270000000    -0.0808298  
C91      C      0.564730000000     0.971570000000     0.753310000000    -0.00606045 
C92      C      0.568000000000     0.974210000000     0.706960000000    -0.00797684 
C93      C      0.550910000000     0.005720000000     0.677730000000    -0.0793771  
C94      C      0.532870000000     0.036160000000     0.696180000000    -0.00921059 
C95      C      0.407190000000     0.978850000000     0.192130000000    -0.00597991 
C96      C      0.427560000000     0.949810000000     0.174380000000    -0.0817733  
C97      C      0.441240000000     0.916160000000     0.203650000000    -0.00426495 
C98      C      0.436740000000     0.912920000000     0.249700000000    -0.00780702 
C99      C      0.419730000000     0.944220000000     0.267900000000    -0.0779246  
C100     C      0.404050000000     0.976610000000     0.238470000000    -0.0080437  
C101     C      0.465860000000     0.753590000000     0.894810000000    -0.00487127 
C102     C      0.519410000000     0.797230000000     0.905010000000    -0.0785403  
C103     C      0.568430000000     0.790860000000     0.910420000000    -0.00650867 
C104     C      0.562600000000     0.740930000000     0.910160000000    -0.00777547 
C105     C      0.507980000000     0.696830000000     0.906260000000    -0.0738875  
C106     C      0.460060000000     0.704000000000     0.896390000000    -0.00643353 
C107     C      0.443050000000     0.169850000000     0.056980000000    -0.0045614  
C108     C      0.429610000000     0.141160000000     0.019640000000    -0.0842244  
C109     C      0.423860000000     0.164180000000     0.977480000000    -0.00227636 
C110     C      0.435470000000     0.215610000000     0.971980000000    -0.0106685  
C111     C      0.449670000000     0.245230000000     0.008750000000    -0.0739734  
C112     C      0.451520000000     0.221120000000     0.051690000000    -0.011908   
C113     C      0.804680000000     0.239520000000     0.472150000000    -0.0116951  
C114     C      0.792440000000     0.270250000000     0.438350000000    -0.0819379  
C115     C      0.734810000000     0.258510000000     0.429060000000    -0.010414   
C116     C      0.690790000000     0.216010000000     0.451880000000    -0.00817979 
C117     C      0.703360000000     0.184000000000     0.484010000000    -0.0867459  
C118     C      0.760700000000     0.196200000000     0.494100000000    -0.00303488 
C119     C      0.223970000000     0.683460000000     0.521490000000    -0.00846094 
C120     C      0.168050000000     0.674300000000     0.507750000000    -0.0876832  
C121     C      0.161210000000     0.706960000000     0.472610000000    -0.0143954  
C122     C      0.208880000000     0.749390000000     0.453330000000    -0.0070621  
C123     C      0.264590000000     0.759510000000     0.468150000000    -0.0834591  
C124     C      0.271800000000     0.725820000000     0.501980000000    -0.00472608 
C125     C      0.783660000000     0.552460000000     0.439310000000    -0.00800342 
C126     C      0.781110000000     0.508040000000     0.464110000000    -0.0762861  
C127     C      0.729910000000     0.460340000000     0.459900000000    -0.000608063
C128     C      0.683770000000     0.456590000000     0.431210000000    -0.0102133  
C129     C      0.685140000000     0.500950000000     0.407580000000    -0.0854197  
C130     C      0.735910000000     0.549020000000     0.411780000000    -0.008937   
C131     C      0.230410000000     0.500750000000     0.451190000000    -0.00500248 
C132     C      0.178320000000     0.453520000000     0.450310000000    -0.0842203  
C133     C      0.175580000000     0.410010000000     0.476800000000    -0.0099981  
C134     C      0.223600000000     0.413700000000     0.503390000000    -0.0086086  
C135     C      0.275660000000     0.460980000000     0.504320000000    -0.0782336  
C136     C      0.278220000000     0.504550000000     0.478050000000    -0.00385103 
C137     C      0.950300000000     0.524490000000     0.729650000000    -0.00492943 
C138     C      0.977620000000     0.500190000000     0.757250000000    -0.089208   
C139     C      0.009740000000     0.482930000000     0.738020000000    -0.00217008 
C140     C      0.012040000000     0.487110000000     0.692150000000     0.00345617 
C141     C      0.981730000000     0.508090000000     0.664170000000    -0.0911565  
C142     C      0.952220000000     0.528310000000     0.683170000000    -0.00392554 
C143     C      0.013190000000     0.426710000000     0.202030000000    -0.00329366 
C144     C      0.987420000000     0.452030000000     0.173890000000    -0.0891341  
C145     C      0.958390000000     0.472780000000     0.192740000000    -0.00716652 
C146     C      0.957580000000     0.470870000000     0.238510000000     0.000225284
C147     C      0.985800000000     0.448250000000     0.266810000000    -0.0936702  
C148     C      0.012310000000     0.424770000000     0.248470000000     0.000689277
C149     C      0.819470000000     0.212580000000     0.909950000000    -0.00729935 
C150     C      0.814880000000     0.255730000000     0.889020000000    -0.0780767  
C151     C      0.761330000000     0.246650000000     0.868520000000    -0.00651823 
C152     C      0.712770000000     0.197150000000     0.872230000000    -0.00767384 
C153     C      0.715990000000     0.154790000000     0.896390000000    -0.0734336  
C154     C      0.770640000000     0.162570000000     0.913290000000    -0.0106116  
C155     C      0.148460000000     0.726910000000     0.006440000000    -0.00617797 
C156     C      0.143620000000     0.689280000000     0.041460000000    -0.0778555  
C157     C      0.187350000000     0.703610000000     0.075730000000    -0.00772382 
C158     C      0.236120000000     0.753520000000     0.073580000000    -0.00787232 
C159     C      0.242520000000     0.789860000000     0.036850000000    -0.0770001  
C160     C      0.197670000000     0.775890000000     0.003680000000    -0.00833723 
C161     C      0.777370000000     0.499360000000     0.976410000000    -0.00303225 
C162     C      0.773830000000     0.457420000000     0.005860000000    -0.0771133  
C163     C      0.721410000000     0.410420000000     0.006400000000    -0.00899755 
C164     C      0.673910000000     0.405460000000     0.978320000000    -0.00941545 
C165     C      0.677600000000     0.447380000000     0.948760000000    -0.0836557  
C166     C      0.730140000000     0.494220000000     0.948010000000    -0.00467213 
C167     C      0.233540000000     0.546180000000     0.911570000000    -0.0100067  
C168     C      0.182410000000     0.498180000000     0.908520000000    -0.0850925  
C169     C      0.181800000000     0.453800000000     0.931360000000    -0.0116135  
C170     C      0.229370000000     0.457310000000     0.957840000000     0.00138732 
C171     C      0.281010000000     0.504860000000     0.960740000000    -0.0795431  
C172     C      0.282600000000     0.549430000000     0.936970000000    -0.00852894 
C173     C      0.751500000000     0.746120000000     0.564000000000    -0.00470118 
C174     C      0.747780000000     0.789120000000     0.541840000000    -0.0758716  
C175     C      0.693060000000     0.781740000000     0.525690000000    -0.00758132 
C176     C      0.644610000000     0.731490000000     0.527460000000    -0.00845877 
C177     C      0.649940000000     0.687880000000     0.545920000000    -0.075812   
C178     C      0.703430000000     0.696390000000     0.566010000000    -0.00684371 
C179     C      0.213200000000     0.202940000000     0.370600000000    -0.00829694 
C180     C      0.215240000000     0.160670000000     0.395900000000    -0.0757881  
C181     C      0.269450000000     0.167100000000     0.412530000000    -0.00757896 
C182     C      0.319420000000     0.216060000000     0.407620000000    -0.0070531  
C183     C      0.316330000000     0.259380000000     0.385360000000    -0.0789218  
C184     C      0.262950000000     0.251330000000     0.365160000000    -0.00711563 
C185     C      0.722490000000     0.975250000000     0.371400000000    -0.00748865 
C186     C      0.733160000000     0.946780000000     0.408240000000    -0.0835096  
C187     C      0.686270000000     0.905820000000     0.430230000000    -0.0126086  
C188     C      0.629870000000     0.895210000000     0.417040000000    -0.00937128 
C189     C      0.619670000000     0.926770000000     0.382650000000    -0.0923543  
C190     C      0.666430000000     0.965780000000     0.359120000000    -0.00351182 
C191     C      0.273710000000     0.045560000000     0.496640000000    -0.0138956  
C192     C      0.230470000000     0.019280000000     0.527310000000    -0.0867475  
C193     C      0.245730000000     0.007240000000     0.571370000000    -0.00977979 
C194     C      0.301800000000     0.016750000000     0.583270000000    -0.0094896  
C195     C      0.344010000000     0.039820000000     0.551750000000    -0.0888364  
C196     C      0.330250000000     0.056540000000     0.508980000000    -0.00614844 
C197     C      0.055520000000     0.790380000000     0.451930000000    -0.0037782  
C198     C      0.035870000000     0.809880000000     0.413460000000    -0.085754   
C199     C      0.009370000000     0.778010000000     0.377910000000     0.0014955  
C200     C      0.001110000000     0.726980000000     0.381540000000    -0.00735184 
C201     C      0.016740000000     0.706240000000     0.421630000000    -0.0750407  
C202     C      0.045110000000     0.739120000000     0.456320000000    -0.012803   
C203     C      0.956070000000     0.225920000000     0.549820000000    -0.0108553  
C204     C      0.947470000000     0.249080000000     0.508260000000    -0.0764662  
C205     C      0.922980000000     0.217760000000     0.472180000000    -0.0105163  
C206     C      0.909460000000     0.165670000000     0.476850000000    -0.00270863 
C207     C      0.922310000000     0.143580000000     0.517140000000    -0.0816387  
C208     C      0.944890000000     0.173920000000     0.553920000000    -0.00499718 
C209     C      0.904940000000     0.981840000000     0.734140000000    -0.0088445  
C210     C      0.917650000000     0.947200000000     0.763070000000    -0.0788016  
C211     C      0.928000000000     0.911800000000     0.744310000000    -0.00967144 
C212     C      0.929620000000     0.913410000000     0.698080000000    -0.00362285 
C213     C      0.919470000000     0.949510000000     0.669310000000    -0.0828189  
C214     C      0.905160000000     0.982540000000     0.687670000000    -0.00644009 
C215     C      0.030290000000     0.038580000000     0.193770000000    -0.00698399 
C216     C      0.042770000000     0.004410000000     0.175310000000    -0.0799011  
C217     C      0.056630000000     0.970520000000     0.204200000000    -0.007765   
C218     C      0.055280000000     0.969160000000     0.250520000000    -0.00399017 
C219     C      0.038680000000     0.000740000000     0.268550000000    -0.0844824  
C220     C      0.027590000000     0.036300000000     0.239850000000    -0.00330082 
C221     C      0.700240000000     0.768510000000     0.966540000000    -0.00704663 
C222     C      0.752370000000     0.772850000000     0.955780000000    -0.0853708  
C223     C      0.763100000000     0.731290000000     0.969200000000    -0.0138332  
C224     C      0.722410000000     0.686380000000     0.992380000000    -0.010587   
C225     C      0.669050000000     0.681120000000     0.001270000000    -0.088036   
C226     C      0.659150000000     0.723310000000     0.988930000000    -0.0127111  
C227     C      0.199170000000     0.210450000000     0.964840000000    -0.011374   
C228     C      0.209790000000     0.169100000000     0.980080000000    -0.085935   
C229     C      0.261790000000     0.172670000000     0.969890000000    -0.0110917  
C230     C      0.302590000000     0.217160000000     0.946220000000    -0.00892388 
C231     C      0.292550000000     0.259010000000     0.932040000000    -0.0833045  
C232     C      0.239320000000     0.254170000000     0.940490000000    -0.00946955 
C233     C      0.800600000000     0.992850000000     0.083620000000    -0.00375982 
C234     C      0.845170000000     0.028190000000     0.056310000000    -0.089462   
C235     C      0.832230000000     0.053870000000     0.018390000000    -0.00548752 
C236     C      0.774960000000     0.040190000000     0.005520000000    -0.0113416  
C237     C      0.730070000000     0.002350000000     0.031310000000    -0.0794307  
C238     C      0.743650000000     0.980630000000     0.071590000000    -0.00164134 
C239     C      0.192820000000     0.888900000000     0.948760000000    -0.00932238 
C240     C      0.231200000000     0.924710000000     0.917640000000    -0.0852345  
C241     C      0.208900000000     0.939780000000     0.877700000000    -0.00558406 
C242     C      0.149660000000     0.923620000000     0.871740000000    -0.0140767  
C243     C      0.112090000000     0.890300000000     0.904700000000    -0.0755518  
C244     C      0.133940000000     0.869850000000     0.941270000000    -0.0114721  
C245     C      0.904910000000     0.671950000000     0.948350000000    -0.00541443 
C246     C      0.934380000000     0.655740000000     0.981660000000    -0.0899989  
C247     C      0.958980000000     0.683530000000     0.019780000000    -0.00325899 
C248     C      0.957690000000     0.729080000000     0.023020000000    -0.00547403 
C249     C      0.931790000000     0.747340000000     0.988190000000    -0.0908447  
C250     C      0.903250000000     0.717310000000     0.951740000000    -0.00453439 
C251     C      0.023210000000     0.226470000000     0.910290000000    -0.00804237 
C252     C      0.044630000000     0.207190000000     0.947690000000    -0.0924553  
C253     C      0.069120000000     0.236570000000     0.984890000000    -0.00423898 
C254     C      0.065430000000     0.281190000000     0.986920000000    -0.00512333 
C255     C      0.038090000000     0.297190000000     0.951500000000    -0.0923851  
C256     C      0.019950000000     0.271320000000     0.912180000000     0.00175073 
H1       H      0.031840000000     0.987110000000     0.867990000000     0.203733   
H2       H      0.925830000000     0.055490000000     0.965330000000     0.189776   
H3       H      0.884210000000     0.855890000000     0.000360000000     0.198732   
H4       H      0.094760000000     0.007580000000     0.048180000000     0.19831    
H5       H      0.906980000000     0.089700000000     0.880320000000     0.133237   
H6       H      0.830940000000     0.016610000000     0.929850000000     0.193855   
H7       H      0.785590000000     0.886250000000     0.050190000000     0.137675   
H8       H      0.882080000000     0.846190000000     0.095840000000     0.188728   
H9       H      0.089690000000     0.902120000000     0.050580000000     0.13839    
H10      H      0.190320000000     0.982400000000     0.987360000000     0.199752   
H11      H      0.163930000000     0.080400000000     0.887090000000     0.134202   
H12      H      0.029010000000     0.108760000000     0.812490000000     0.204336   
H13      H      0.932280000000     0.831950000000     0.120660000000     0.203241   
H14      H      0.214920000000     0.025950000000     0.943420000000     0.203587   
H15      H      0.083490000000     0.109170000000     0.845750000000     0.196201   
H16      H      0.771250000000     0.963200000000     0.945690000000     0.214113   
H17      H      0.841760000000     0.896950000000     0.441950000000     0.194911   
H18      H      0.039980000000     0.059470000000     0.379760000000     0.19464    
H19      H      0.996830000000     0.045200000000     0.553860000000     0.190615   
H20      H      0.044370000000     0.902640000000     0.499880000000     0.196005   
H21      H      0.960560000000     0.077000000000     0.335170000000     0.130174   
H22      H      0.996040000000     0.144660000000     0.398250000000     0.197161   
H23      H      0.130900000000     0.129670000000     0.528100000000     0.13855    
H24      H      0.096070000000     0.065990000000     0.604400000000     0.190737   
H25      H      0.002480000000     0.874660000000     0.600570000000     0.143365   
H26      H      0.968350000000     0.799680000000     0.524610000000     0.198693   
H27      H      0.835060000000     0.819500000000     0.407220000000     0.125571   
H28      H      0.866300000000     0.885150000000     0.334860000000     0.195408   
H29      H      0.114380000000     0.022460000000     0.630190000000     0.205142   
H30      H      0.913610000000     0.792980000000     0.551730000000     0.200735   
H31      H      0.832460000000     0.919450000000     0.317390000000     0.20506    
H32      H      0.067000000000     0.182230000000     0.406760000000     0.203046   
H33      H      0.911330000000     0.411980000000     0.058670000000     0.201717   
H34      H      0.884200000000     0.430440000000     0.875800000000     0.192975   
H35      H      0.037950000000     0.602440000000     0.959540000000     0.198836   
H36      H      0.085950000000     0.444880000000     0.965340000000     0.20274    
H37      H      0.760350000000     0.374200000000     0.913960000000     0.137467   
H38      H      0.837410000000     0.529020000000     0.881830000000     0.206906   
H39      H      0.044090000000     0.632910000000     0.868480000000     0.129382   
H40      H      0.177360000000     0.643530000000     0.909410000000     0.194662   
H41      H      0.195140000000     0.559190000000     0.020580000000     0.142142   
H42      H      0.124610000000     0.420210000000     0.048920000000     0.201777   
H43      H      0.911860000000     0.314360000000     0.058670000000     0.128801   
H44      H      0.792210000000     0.302370000000     0.025550000000     0.191913   
H45      H      0.218570000000     0.633490000000     0.950810000000     0.195855   
H46      H      0.104800000000     0.425270000000     0.097770000000     0.206101   
H47      H      0.745490000000     0.313070000000     0.990520000000     0.195287   
H48      H      0.848670000000     0.506570000000     0.838050000000     0.199975   
H49      H      0.892580000000     0.447680000000     0.546550000000     0.200959   
H50      H      0.906150000000     0.434890000000     0.370440000000     0.194719   
H51      H      0.070410000000     0.604600000000     0.446300000000     0.189901   
H52      H      0.064370000000     0.419760000000     0.501430000000     0.193382   
H53      H      0.814770000000     0.444620000000     0.368260000000     0.136185   
H54      H      0.886720000000     0.548770000000     0.345970000000     0.204041   
H55      H      0.101600000000     0.614630000000     0.360250000000     0.127454   
H56      H      0.184370000000     0.626620000000     0.427140000000     0.191889   
H57      H      0.151750000000     0.499290000000     0.557120000000     0.139387   
H58      H      0.073570000000     0.400370000000     0.585990000000     0.189857   
H59      H      0.865010000000     0.332960000000     0.569260000000     0.133564   
H60      H      0.782750000000     0.334980000000     0.512830000000     0.192714   
H61      H      0.224920000000     0.608850000000     0.463160000000     0.20349    
H62      H      0.044610000000     0.409210000000     0.628080000000     0.204459   
H63      H      0.740370000000     0.347280000000     0.474100000000     0.201285   
H64      H      0.916880000000     0.542070000000     0.303460000000     0.201045   
H65      H      0.462110000000     0.901040000000     0.887580000000     0.191383   
H66      H      0.422320000000     0.888850000000     0.062770000000     0.192715   
H67      H      0.621410000000     0.048030000000     0.997930000000     0.196525   
H68      H      0.421400000000     0.046680000000     0.941810000000     0.193501   
H69      H      0.410990000000     0.799270000000     0.057960000000     0.133804   
H70      H      0.563700000000     0.879290000000     0.090880000000     0.208688   
H71      H      0.593030000000     0.055900000000     0.103770000000     0.136429   
H72      H      0.635050000000     0.129980000000     0.037760000000     0.187507   
H73      H      0.532700000000     0.132190000000     0.885660000000     0.139295   
H74      H      0.392240000000     0.056890000000     0.855310000000     0.19449    
H75      H      0.347730000000     0.881110000000     0.852050000000     0.128541   
H76      H      0.340740000000     0.804410000000     0.904680000000     0.185768   
H77      H      0.618480000000     0.175350000000     0.013960000000     0.203318   
H78      H      0.448510000000     0.069360000000     0.826960000000     0.199394   
H79      H      0.345070000000     0.760130000000     0.942640000000     0.200734   
H80      H      0.512940000000     0.874730000000     0.121670000000     0.198688   
H81      H      0.358990000000     0.929680000000     0.404500000000     0.189857   
H82      H      0.446020000000     0.956640000000     0.579540000000     0.210582   
H83      H      0.549780000000     0.904460000000     0.469650000000     0.197422   
H84      H      0.568670000000     0.094570000000     0.437430000000     0.199265   
H85      H      0.270900000000     0.901160000000     0.549170000000     0.14324    
H86      H      0.407090000000     0.837270000000     0.600540000000     0.199363   
H87      H      0.619220000000     0.942220000000     0.579920000000     0.14399    
H88      H      0.650000000000     0.952800000000     0.498090000000     0.198392   
H89      H      0.660270000000     0.079280000000     0.375180000000     0.137774   
H90      H      0.546460000000     0.108500000000     0.337830000000     0.189974   
H91      H      0.368660000000     0.055790000000     0.401000000000     0.144497   
H92      H      0.294330000000     0.955770000000     0.429510000000     0.199506   
H93      H      0.702000000000     0.004460000000     0.471180000000     0.215971   
H94      H      0.484780000000     0.108700000000     0.321260000000     0.203609   
H95      H      0.266240000000     0.948120000000     0.478140000000     0.200325   
H96      H      0.466850000000     0.841450000000     0.628020000000     0.206187   
H97      H      0.394160000000     0.445170000000     0.041390000000     0.198293   
H98      H      0.403830000000     0.425640000000     0.867370000000     0.194622   
H99      H      0.569640000000     0.599450000000     0.938440000000     0.194042   
H100     H      0.565540000000     0.416230000000     0.997730000000     0.197137   
H101     H      0.312130000000     0.438540000000     0.867330000000     0.134425   
H102     H      0.383510000000     0.538690000000     0.840980000000     0.201488   
H103     H      0.599370000000     0.594340000000     0.847860000000     0.131908   
H104     H      0.679740000000     0.618720000000     0.914750000000     0.189158   
H105     H      0.656770000000     0.505710000000     0.052750000000     0.142617   
H106     H      0.570340000000     0.391850000000     0.086380000000     0.195026   
H107     H      0.371210000000     0.351750000000     0.083300000000     0.12687    
H108     H      0.294360000000     0.328220000000     0.014410000000     0.192949   
H109     H      0.722430000000     0.598910000000     0.945370000000     0.199385   
H110     H      0.572760000000     0.439130000000     0.112900000000     0.201598   
H111     H      0.247810000000     0.346650000000     0.988870000000     0.200322   
H112     H      0.412900000000     0.531410000000     0.798270000000     0.202078   
H113     H      0.412780000000     0.413960000000     0.554360000000     0.20273    
H114     H      0.387460000000     0.433750000000     0.371510000000     0.194309   
H115     H      0.541120000000     0.605030000000     0.456770000000     0.197498   
H116     H      0.587940000000     0.446980000000     0.461710000000     0.20298    
H117     H      0.265090000000     0.380360000000     0.407450000000     0.136243   
H118     H      0.340560000000     0.529330000000     0.379450000000     0.210807   
H119     H      0.551470000000     0.634890000000     0.366000000000     0.127358   
H120     H      0.679820000000     0.646250000000     0.406130000000     0.197459   
H121     H      0.698820000000     0.562230000000     0.516550000000     0.141438   
H122     H      0.623940000000     0.417450000000     0.543920000000     0.201217   
H123     H      0.415030000000     0.316380000000     0.554950000000     0.129615   
H124     H      0.293360000000     0.305670000000     0.519970000000     0.195574   
H125     H      0.720790000000     0.637560000000     0.448530000000     0.201853   
H126     H      0.611690000000     0.435660000000     0.589860000000     0.206137   
H127     H      0.247570000000     0.316420000000     0.483820000000     0.199303   
H128     H      0.357190000000     0.519170000000     0.331310000000     0.203032   
H129     H      0.421630000000     0.468340000000     0.749400000000     0.0282621  
H130     H      0.539820000000     0.407020000000     0.764100000000     0.0386031  
H131     H      0.543760000000     0.415460000000     0.682470000000     0.0391871  
H132     H      0.426210000000     0.477660000000     0.669290000000     0.040631   
H133     H      0.499350000000     0.580670000000     0.159470000000     0.040802   
H134     H      0.421910000000     0.413260000000     0.169670000000     0.0446609  
H135     H      0.425280000000     0.410850000000     0.249770000000     0.0396835  
H136     H      0.500940000000     0.577840000000     0.241300000000     0.0432513  
H137     H      0.415230000000     0.720590000000     0.550110000000     0.0354286  
H138     H      0.494220000000     0.779080000000     0.423370000000     0.0434814  
H139     H      0.481080000000     0.694690000000     0.412700000000     0.0427741  
H140     H      0.402950000000     0.634830000000     0.539920000000     0.0442049  
H141     H      0.479790000000     0.193100000000     0.385790000000     0.0389203  
H142     H      0.577950000000     0.219810000000     0.512770000000     0.0464591  
H143     H      0.581130000000     0.302970000000     0.511720000000     0.03559    
H144     H      0.483810000000     0.276370000000     0.384660000000     0.0462055  
H145     H      0.511850000000     0.054860000000     0.755100000000     0.0353078  
H146     H      0.576180000000     0.945600000000     0.774810000000     0.0406369  
H147     H      0.582150000000     0.950250000000     0.693930000000     0.04083    
H148     H      0.519020000000     0.060610000000     0.674890000000     0.0424928  
H149     H      0.396540000000     0.005230000000     0.170450000000     0.0397489  
H150     H      0.456770000000     0.893030000000     0.190950000000     0.0321187  
H151     H      0.449570000000     0.887880000000     0.271210000000     0.0449451  
H152     H      0.390760000000     0.001270000000     0.251370000000     0.0410072  
H153     H      0.427090000000     0.756970000000     0.889450000000     0.0356764  
H154     H      0.610270000000     0.823320000000     0.917940000000     0.0389977  
H155     H      0.600280000000     0.736210000000     0.915080000000     0.0335225  
H156     H      0.417570000000     0.670880000000     0.892440000000     0.033262   
H157     H      0.450220000000     0.153830000000     0.089690000000     0.0325553  
H158     H      0.415780000000     0.143860000000     0.947940000000     0.0283439  
H159     H      0.434470000000     0.232460000000     0.938250000000     0.0465768  
H160     H      0.462840000000     0.242770000000     0.080760000000     0.0410689  
H161     H      0.848230000000     0.249330000000     0.482110000000     0.0466526  
H162     H      0.723690000000     0.282040000000     0.403990000000     0.0377411  
H163     H      0.646600000000     0.206070000000     0.442210000000     0.0301483  
H164     H      0.771300000000     0.171150000000     0.517770000000     0.0363504  
H165     H      0.230740000000     0.658410000000     0.547860000000     0.0366381  
H166     H      0.119000000000     0.699570000000     0.459730000000     0.0347534  
H167     H      0.202250000000     0.775780000000     0.428350000000     0.0321427  
H168     H      0.314510000000     0.734060000000     0.515150000000     0.0359002  
H169     H      0.822400000000     0.589630000000     0.440920000000     0.0408657  
H170     H      0.725550000000     0.424890000000     0.478100000000     0.03226    
H171     H      0.645900000000     0.418880000000     0.429170000000     0.034964   
H172     H      0.738600000000     0.584030000000     0.393860000000     0.0347222  
H173     H      0.234140000000     0.535160000000     0.431320000000     0.0329188  
H174     H      0.136100000000     0.373250000000     0.477570000000     0.0365724  
H175     H      0.220230000000     0.379160000000     0.522810000000     0.0344701  
H176     H      0.317670000000     0.541280000000     0.477050000000     0.0423968  
H177     H      0.925720000000     0.538640000000     0.743830000000     0.0384118  
H178     H      0.032640000000     0.465450000000     0.758420000000     0.0447801  
H179     H      0.036360000000     0.472300000000     0.678500000000     0.0350284  
H180     H      0.928610000000     0.544710000000     0.662260000000     0.03801    
H181     H      0.035380000000     0.409920000000     0.188290000000     0.0390851  
H182     H      0.936700000000     0.491300000000     0.172180000000     0.0417038  
H183     H      0.935540000000     0.488140000000     0.251790000000     0.0294021  
H184     H      0.034160000000     0.406970000000     0.269820000000     0.0392863  
H185     H      0.859450000000     0.218340000000     0.927500000000     0.0356683  
H186     H      0.755650000000     0.279030000000     0.853350000000     0.0299559  
H187     H      0.671470000000     0.192960000000     0.859170000000     0.0380568  
H188     H      0.774750000000     0.131400000000     0.932800000000     0.0332695  
H189     H      0.117110000000     0.716350000000     0.978380000000     0.0300496  
H190     H      0.186340000000     0.674870000000     0.102030000000     0.0344704  
H191     H      0.271040000000     0.762090000000     0.098670000000     0.0303977  
H192     H      0.203090000000     0.800530000000     0.973140000000     0.0348923  
H193     H      0.817200000000     0.535680000000     0.974080000000     0.0418026  
H194     H      0.717380000000     0.377050000000     0.028190000000     0.0323134  
H195     H      0.634070000000     0.369070000000     0.980370000000     0.0346431  
H196     H      0.734700000000     0.527270000000     0.925550000000     0.0287985  
H197     H      0.235570000000     0.581230000000     0.894280000000     0.0328628  
H198     H      0.143650000000     0.416180000000     0.930250000000     0.0375001  
H199     H      0.225660000000     0.421740000000     0.975320000000     0.0317565  
H200     H      0.321600000000     0.586500000000     0.937680000000     0.037462   
H201     H      0.792900000000     0.750180000000     0.576580000000     0.0334666  
H202     H      0.688690000000     0.813650000000     0.507890000000     0.035264   
H203     H      0.604490000000     0.726160000000     0.510460000000     0.0357268  
H204     H      0.709440000000     0.663680000000     0.579510000000     0.0331586  
H205     H      0.172230000000     0.199610000000     0.357660000000     0.0304625  
H206     H      0.272500000000     0.135850000000     0.432930000000     0.0374048  
H207     H      0.359210000000     0.221180000000     0.425090000000     0.0373668  
H208     H      0.258470000000     0.284020000000     0.349100000000     0.0279368  
H209     H      0.757780000000     0.006480000000     0.353390000000     0.0448445  
H210     H      0.693360000000     0.882660000000     0.458130000000     0.0357753  
H211     H      0.594910000000     0.864880000000     0.435900000000     0.0271343  
H212     H      0.659840000000     0.990710000000     0.332500000000     0.0395973  
H213     H      0.263340000000     0.055370000000     0.462500000000     0.0418369  
H214     H      0.213570000000     0.987340000000     0.595930000000     0.0408656  
H215     H      0.311120000000     0.002450000000     0.616120000000     0.0372002  
H216     H      0.361630000000     0.073110000000     0.483690000000     0.0365965  
H217     H      0.073960000000     0.813190000000     0.480500000000     0.0268945  
H218     H      0.991650000000     0.791350000000     0.348570000000     0.0311194  
H219     H      0.978920000000     0.702730000000     0.354300000000     0.0380071  
H220     H      0.057600000000     0.724680000000     0.487830000000     0.0483937  
H221     H      0.974780000000     0.248790000000     0.578270000000     0.03815    
H222     H      0.914890000000     0.233770000000     0.439750000000     0.0481802  
H223     H      0.894130000000     0.144020000000     0.447510000000     0.0360471  
H224     H      0.957600000000     0.158620000000     0.584850000000     0.0308139  
H225     H      0.896640000000     0.009570000000     0.747470000000     0.043607   
H226     H      0.938250000000     0.884810000000     0.765420000000     0.0433142  
H227     H      0.940760000000     0.887460000000     0.684810000000     0.0365066  
H228     H      0.897640000000     0.011030000000     0.666330000000     0.0373393  
H229     H      0.019130000000     0.064900000000     0.172510000000     0.0445904  
H230     H      0.066610000000     0.943820000000     0.190920000000     0.0425038  
H231     H      0.063760000000     0.941270000000     0.271960000000     0.0398192  
H232     H      0.014890000000     0.061240000000     0.253030000000     0.0356349  
H233     H      0.691820000000     0.800890000000     0.958560000000     0.0409492  
H234     H      0.804150000000     0.734540000000     0.964000000000     0.0382529  
H235     H      0.732610000000     0.655460000000     0.002780000000     0.0376004  
H236     H      0.619190000000     0.721180000000     0.995920000000     0.0465935  
H237     H      0.158990000000     0.208570000000     0.970510000000     0.0446042  
H238     H      0.270730000000     0.140840000000     0.979730000000     0.0394887  
H239     H      0.341930000000     0.218900000000     0.938990000000     0.0415547  
H240     H      0.228960000000     0.284900000000     0.929420000000     0.0408105  
H241     H      0.809450000000     0.972140000000     0.112800000000     0.0346658  
H242     H      0.865600000000     0.081010000000     0.996560000000     0.0217381  
H243     H      0.765590000000     0.058110000000     0.974770000000     0.0360155  
H244     H      0.709980000000     0.952070000000     0.092570000000     0.0397723  
H245     H      0.208570000000     0.877450000000     0.980190000000     0.0439055  
H246     H      0.237630000000     0.967280000000     0.852990000000     0.0352462  
H247     H      0.134430000000     0.941270000000     0.843920000000     0.0369858  
H248     H      0.106320000000     0.845030000000     0.967730000000     0.040232   
H249     H      0.884530000000     0.650430000000     0.919280000000     0.0370335  
H250     H      0.981840000000     0.671590000000     0.046230000000     0.0475199  
H251     H      0.979840000000     0.751350000000     0.051430000000     0.0424828  
H252     H      0.881860000000     0.730040000000     0.924650000000     0.0431677  
H253     H      0.004770000000     0.204960000000     0.881020000000     0.0392302  
H254     H      0.087560000000     0.223240000000     0.013770000000     0.0434535  
H255     H      0.081510000000     0.301640000000     0.016900000000     0.0373341  
H256     H      0.999610000000     0.283530000000     0.883900000000     0.0431741  
O1       O      0.164030000000     0.078030000000     0.993200000000    -0.37745    
O2       O      0.117600000000     0.119180000000     0.010310000000    -0.346894   
O3       O      0.943230000000     0.996900000000     0.825410000000    -0.358952   
O4       O      0.922500000000     0.912170000000     0.837970000000    -0.364508   
O5       O      0.014800000000     0.128310000000     0.916140000000    -0.368638   
O6       O      0.035050000000     0.133780000000     0.991210000000    -0.363513   
O7       O      0.069040000000     0.915610000000     0.951100000000    -0.315133   
O8       O      0.018110000000     0.886580000000     0.888770000000    -0.3352     
O9       O      0.139590000000     0.043010000000     0.882760000000    -0.369437   
O10      O      0.184520000000     0.004360000000     0.963320000000    -0.524067   
O11      O      0.042860000000     0.097260000000     0.840030000000    -0.521533   
O12      O      0.903340000000     0.062490000000     0.862340000000    -0.34996    
O13      O      0.053270000000     0.059630000000     0.949350000000    -0.493923   
O14      O      0.018710000000     0.985740000000     0.896820000000    -0.6222     
O15      O      0.960230000000     0.825310000000     0.021640000000    -0.361637   
O16      O      0.932320000000     0.818650000000     0.947490000000    -0.366908   
O17      O      0.894000000000     0.981440000000     0.057660000000    -0.335934   
O18      O      0.946570000000     0.065750000000     0.049150000000    -0.348542   
O19      O      0.802430000000     0.859960000000     0.965770000000    -0.377286   
O20      O      0.842650000000     0.830250000000     0.922500000000    -0.348607   
O21      O      0.017500000000     0.954510000000     0.113620000000    -0.358972   
O22      O      0.039950000000     0.039710000000     0.100470000000    -0.366398   
O23      O      0.920730000000     0.851200000000     0.097620000000    -0.524531   
O24      O      0.065320000000     0.894130000000     0.075870000000    -0.345763   
O25      O      0.779460000000     0.906300000000     0.023470000000    -0.337747   
O26      O      0.812700000000     0.983080000000     0.946460000000    -0.531983   
O27      O      0.910750000000     0.891150000000     0.990380000000    -0.622335   
O28      O      0.945420000000     0.965010000000     0.041200000000    -0.461881   
O29      O      0.020240000000     0.921300000000     0.973480000000    -0.451379   
O30      O      0.940550000000     0.031590000000     0.965640000000    -0.624437   
O31      O      0.063220000000     0.997420000000     0.025920000000    -0.6268     
O32      O      0.900800000000     0.954440000000     0.913440000000    -0.493668   
O33      O      0.974230000000     0.835980000000     0.433660000000    -0.367106   
O34      O      0.064110000000     0.900320000000     0.416070000000    -0.357216   
O35      O      0.826650000000     0.967170000000     0.392090000000    -0.36099    
O36      O      0.806390000000     0.958360000000     0.465150000000    -0.35613    
O37      O      0.979300000000     0.992130000000     0.323920000000    -0.371447   
O38      O      0.061640000000     0.988040000000     0.346020000000    -0.358413   
O39      O      0.836300000000     0.825300000000     0.509180000000    -0.363993   
O40      O      0.811140000000     0.882540000000     0.529880000000    -0.34082    
O41      O      0.854730000000     0.802390000000     0.425930000000    -0.336046   
O42      O      0.938290000000     0.808220000000     0.526950000000    -0.528727   
O43      O      0.861450000000     0.915080000000     0.336470000000    -0.527744   
O44      O      0.919870000000     0.051530000000     0.340310000000    -0.343851   
O45      O      0.966800000000     0.926720000000     0.408220000000    -0.495579   
O46      O      0.881770000000     0.920310000000     0.449140000000    -0.630606   
O47      O      0.977860000000     0.956700000000     0.613490000000    -0.366923   
O48      O      0.897170000000     0.963590000000     0.591530000000    -0.356985   
O49      O      0.127170000000     0.126770000000     0.429920000000    -0.364721   
O50      O      0.149160000000     0.068290000000     0.407340000000    -0.341484   
O51      O      0.983370000000     0.117000000000     0.497530000000    -0.366376   
O52      O      0.895410000000     0.052570000000     0.519450000000    -0.35014    
O53      O      0.136350000000     0.996730000000     0.544090000000    -0.358378   
O54      O      0.153970000000     0.997840000000     0.471710000000    -0.356611   
O55      O      0.093830000000     0.032320000000     0.606150000000    -0.522795   
O56      O      0.042580000000     0.900020000000     0.593490000000    -0.35502    
O57      O      0.104150000000     0.143470000000     0.518160000000    -0.349352   
O58      O      0.032280000000     0.149920000000     0.412800000000    -0.525346   
O59      O      0.992900000000     0.025630000000     0.529300000000    -0.625365   
O60      O      0.078320000000     0.031110000000     0.488470000000    -0.497947   
O61      O      0.937750000000     0.917060000000     0.532530000000    -0.496849   
O62      O      0.021950000000     0.035440000000     0.405030000000    -0.629454   
O63      O      0.025220000000     0.923080000000     0.491470000000    -0.624064   
O64      O      0.936100000000     0.029460000000     0.446590000000    -0.490794   
O65      O      0.024710000000     0.350510000000     0.995340000000    -0.364671   
O66      O      0.013190000000     0.358840000000     0.919380000000    -0.365632   
O67      O      0.829690000000     0.417740000000     0.031430000000    -0.372621   
O68      O      0.872970000000     0.503090000000     0.031550000000    -0.326401   
O69      O      0.836410000000     0.323250000000     0.931960000000    -0.368576   
O70      O      0.904920000000     0.338230000000     0.885020000000    -0.343644   
O71      O      0.002910000000     0.428160000000     0.106760000000    -0.366595   
O72      O      0.978430000000     0.492210000000     0.103920000000    -0.379584   
O73      O      0.951850000000     0.326530000000     0.070960000000    -0.339866   
O74      O      0.096680000000     0.420690000000     0.066270000000    -0.524822   
O75      O      0.784580000000     0.323190000000     0.001430000000    -0.516257   
O76      O      0.789200000000     0.410020000000     0.920630000000    -0.355633   
O77      O      0.938740000000     0.380580000000     0.969470000000    -0.495884   
O78      O      0.930220000000     0.428530000000     0.031270000000    -0.626106   
O79      O      0.127020000000     0.619790000000     0.003370000000    -0.374024   
O80      O      0.055920000000     0.606120000000     0.047090000000    -0.34043    
O81      O      0.963740000000     0.523280000000     0.824940000000    -0.367393   
O82      O      0.980070000000     0.454490000000     0.826090000000    -0.372633   
O83      O      0.938950000000     0.597520000000     0.937290000000    -0.363653   
O84      O      0.953790000000     0.590760000000     0.013070000000    -0.3661     
O85      O      0.118480000000     0.532250000000     0.890780000000    -0.349691   
O86      O      0.084390000000     0.449610000000     0.882160000000    -0.335858   
O87      O      0.181370000000     0.622780000000     0.935390000000    -0.519933   
O88      O      0.171510000000     0.528290000000     0.003690000000    -0.362989   
O89      O      0.002970000000     0.620040000000     0.859270000000    -0.330957   
O90      O      0.861650000000     0.521050000000     0.866600000000    -0.524114   
O91      O      0.022880000000     0.565380000000     0.960910000000    -0.630403   
O92      O      0.030330000000     0.517120000000     0.900120000000    -0.469703   
O93      O      0.050580000000     0.503010000000     0.028970000000    -0.493834   
O94      O      0.910140000000     0.443230000000     0.901620000000    -0.62492    
O95      O      0.056010000000     0.453860000000     0.965650000000    -0.625382   
O96      O      0.904710000000     0.491650000000     0.965340000000    -0.486054   
O97      O      0.960970000000     0.328630000000     0.533300000000    -0.35423    
O98      O      0.974550000000     0.326000000000     0.460700000000    -0.346419   
O99      O      0.826970000000     0.462890000000     0.500800000000    -0.378466   
O100     O      0.882540000000     0.547760000000     0.490330000000    -0.33537    
O101     O      0.828840000000     0.356160000000     0.407700000000    -0.380405   
O102     O      0.891500000000     0.326380000000     0.423310000000    -0.335751   
O103     O      0.980090000000     0.463410000000     0.605970000000    -0.368929   
O104     O      0.971000000000     0.536380000000     0.587790000000    -0.369828   
O105     O      0.896230000000     0.353630000000     0.590900000000    -0.345358   
O106     O      0.045210000000     0.406960000000     0.596610000000    -0.529055   
O107     O      0.778310000000     0.355630000000     0.486950000000    -0.523865   
O108     O      0.800630000000     0.444880000000     0.397030000000    -0.350036   
O109     O      0.919020000000     0.386950000000     0.478620000000    -0.49705    
O110     O      0.916440000000     0.455430000000     0.521960000000    -0.613893   
O111     O      0.119970000000     0.585970000000     0.534740000000    -0.358401   
O112     O      0.067930000000     0.626090000000     0.520950000000    -0.339694   
O113     O      0.992090000000     0.495460000000     0.324700000000    -0.368806   
O114     O      0.986850000000     0.416010000000     0.342860000000    -0.37309    
O115     O      0.001040000000     0.625870000000     0.396700000000    -0.351347   
O116     O      0.992610000000     0.630490000000     0.470080000000    -0.34811    
O117     O      0.124640000000     0.494700000000     0.419280000000    -0.350628   
O118     O      0.078430000000     0.409320000000     0.425130000000    -0.348864   
O119     O      0.187510000000     0.602950000000     0.450860000000    -0.532989   
O120     O      0.168010000000     0.508010000000     0.527470000000    -0.361167   
O121     O      0.066570000000     0.603270000000     0.340090000000    -0.332301   
O122     O      0.916330000000     0.544180000000     0.334960000000    -0.532525   
O123     O      0.044890000000     0.568030000000     0.452560000000    -0.62137    
O124     O      0.046640000000     0.498810000000     0.410800000000    -0.464416   
O125     O      0.034100000000     0.506760000000     0.531820000000    -0.468799   
O126     O      0.927690000000     0.447910000000     0.397950000000    -0.616889   
O127     O      0.042030000000     0.436990000000     0.491410000000    -0.62181    
O128     O      0.921500000000     0.517690000000     0.439350000000    -0.48984    
O129     O      0.325530000000     0.951620000000     0.896830000000    -0.360186   
O130     O      0.311010000000     0.952020000000     0.969800000000    -0.355392   
O131     O      0.472610000000     0.829530000000     0.939670000000    -0.369559   
O132     O      0.559790000000     0.890420000000     0.914310000000    -0.3477     
O133     O      0.332460000000     0.821830000000     0.007760000000    -0.366394   
O134     O      0.313880000000     0.881130000000     0.033140000000    -0.342082   
O135     O      0.483940000000     0.990720000000     0.827580000000    -0.359312   
O136     O      0.564570000000     0.983500000000     0.848790000000    -0.354681   
O137     O      0.367270000000     0.915280000000     0.834800000000    -0.33689    
O138     O      0.421270000000     0.048440000000     0.849320000000    -0.532409   
O139     O      0.356870000000     0.795980000000     0.932550000000    -0.517927   
O140     O      0.437350000000     0.804480000000     0.034980000000    -0.344661   
O141     O      0.385070000000     0.917750000000     0.953770000000    -0.495794   
O142     O      0.467550000000     0.920920000000     0.912300000000    -0.622732   
O143     O      0.628020000000     0.120360000000     0.929930000000    -0.361085   
O144     O      0.651240000000     0.061540000000     0.909800000000    -0.338836   
O145     O      0.485910000000     0.957310000000     0.118090000000    -0.366092   
O146     O      0.403800000000     0.961970000000     0.096480000000    -0.356698   
O147     O      0.636820000000     0.981000000000     0.048310000000    -0.36136    
O148     O      0.654650000000     0.985270000000     0.975220000000    -0.357903   
O149     O      0.491270000000     0.112900000000     0.004740000000    -0.364185   
O150     O      0.401450000000     0.050050000000     0.024010000000    -0.357318   
O151     O      0.611850000000     0.140070000000     0.016560000000    -0.524162   
O152     O      0.531820000000     0.142950000000     0.915070000000    -0.347541   
O153     O      0.604640000000     0.028660000000     0.106940000000    -0.339049   
O154     O      0.538870000000     0.892190000000     0.097830000000    -0.526133   
O155     O      0.581250000000     0.024760000000     0.991230000000    -0.629206   
O156     O      0.498350000000     0.021250000000     0.033130000000    -0.495419   
O157     O      0.525260000000     0.028990000000     0.908360000000    -0.49353    
O158     O      0.440610000000     0.912500000000     0.037370000000    -0.631362   
O159     O      0.439690000000     0.025520000000     0.950200000000    -0.623401   
O160     O      0.526430000000     0.916190000000     0.994710000000    -0.485098   
O161     O      0.490620000000     0.118160000000     0.421770000000    -0.37447    
O162     O      0.528000000000     0.129850000000     0.493560000000    -0.361352   
O163     O      0.315740000000     0.843480000000     0.487960000000    -0.35848    
O164     O      0.348580000000     0.823930000000     0.430740000000    -0.349496   
O165     O      0.378300000000     0.981530000000     0.562160000000    -0.376969   
O166     O      0.441700000000     0.063670000000     0.543240000000    -0.339254   
O167     O      0.436410000000     0.991050000000     0.330800000000    -0.356288   
O168     O      0.422940000000     0.908540000000     0.342930000000    -0.361434   
O169     O      0.370880000000     0.034900000000     0.379020000000    -0.361758   
O170     O      0.506120000000     0.095560000000     0.341470000000    -0.516998   
O171     O      0.296420000000     0.950440000000     0.461630000000    -0.539683   
O172     O      0.293680000000     0.882880000000     0.550890000000    -0.332054   
O173     O      0.432830000000     0.021340000000     0.475550000000    -0.489532   
O174     O      0.393060000000     0.943580000000     0.424300000000    -0.632879   
O175     O      0.567240000000     0.971300000000     0.377840000000    -0.343374   
O176     O      0.518110000000     0.886970000000     0.390090000000    -0.345405   
O177     O      0.536100000000     0.959110000000     0.614940000000    -0.367793   
O178     O      0.540950000000     0.038700000000     0.603000000000    -0.367439   
O179     O      0.479860000000     0.829460000000     0.524430000000    -0.362653   
O180     O      0.442570000000     0.820620000000     0.452270000000    -0.370691   
O181     O      0.656950000000     0.098910000000     0.468380000000    -0.373983   
O182     O      0.616400000000     0.121850000000     0.517640000000    -0.351128   
O183     O      0.662040000000     0.983790000000     0.477950000000    -0.538078   
O184     O      0.674900000000     0.062590000000     0.399630000000    -0.338024   
O185     O      0.589990000000     0.907040000000     0.571910000000    -0.355469   
O186     O      0.448400000000     0.852080000000     0.602840000000    -0.524279   
O187     O      0.531490000000     0.925180000000     0.471290000000    -0.624328   
O188     O      0.570640000000     0.002900000000     0.522250000000    -0.502422   
O189     O      0.510260000000     0.985770000000     0.398230000000    -0.466012   
O190     O      0.454850000000     0.961020000000     0.548750000000    -0.627552   
O191     O      0.544320000000     0.058960000000     0.448040000000    -0.627579   
O192     O      0.420750000000     0.887820000000     0.497830000000    -0.485515   
O193     O      0.461260000000     0.325130000000     0.032160000000    -0.348307   
O194     O      0.475110000000     0.320950000000     0.960070000000    -0.347756   
O195     O      0.327330000000     0.459150000000     0.995270000000    -0.379653   
O196     O      0.383540000000     0.544180000000     0.983950000000    -0.336356   
O197     O      0.326890000000     0.347030000000     0.907460000000    -0.376984   
O198     O      0.391760000000     0.318930000000     0.918860000000    -0.337546   
O199     O      0.471650000000     0.457560000000     0.101120000000    -0.372359   
O200     O      0.468920000000     0.533430000000     0.081640000000    -0.366241   
O201     O      0.406890000000     0.350020000000     0.092710000000    -0.335948   
O202     O      0.555670000000     0.415030000000     0.090030000000    -0.534073   
O203     O      0.286270000000     0.351180000000     0.993000000000    -0.527211   
O204     O      0.294350000000     0.430890000000     0.896230000000    -0.349219   
O205     O      0.420250000000     0.381560000000     0.976250000000    -0.495252   
O206     O      0.418650000000     0.452580000000     0.017350000000    -0.616556   
O207     O      0.631590000000     0.591420000000     0.021630000000    -0.365567   
O208     O      0.569800000000     0.623110000000     0.012890000000    -0.348191   
O209     O      0.488000000000     0.485530000000     0.819650000000    -0.372645   
O210     O      0.485200000000     0.407280000000     0.839210000000    -0.371124   
O211     O      0.499120000000     0.617640000000     0.886840000000    -0.352586   
O212     O      0.491680000000     0.626120000000     0.959580000000    -0.339146   
O213     O      0.624380000000     0.487800000000     0.914750000000    -0.349904   
O214     O      0.578180000000     0.402460000000     0.922430000000    -0.34915    
O215     O      0.684570000000     0.594810000000     0.937270000000    -0.529788   
O216     O      0.667830000000     0.505530000000     0.022670000000    -0.359747   
O217     O      0.563960000000     0.592880000000     0.832660000000    -0.334653   
O218     O      0.412990000000     0.534090000000     0.829750000000    -0.531931   
O219     O      0.544300000000     0.562970000000     0.945560000000    -0.627371   
O220     O      0.545660000000     0.491710000000     0.905250000000    -0.471733   
O221     O      0.536100000000     0.504810000000     0.026680000000    -0.480346   
O222     O      0.426280000000     0.439820000000     0.894280000000    -0.621642   
O223     O      0.542820000000     0.432960000000     0.987180000000    -0.624872   
O224     O      0.421220000000     0.511050000000     0.934270000000    -0.492383   
O225     O      0.522750000000     0.351300000000     0.491070000000    -0.369666   
O226     O      0.514330000000     0.360520000000     0.414950000000    -0.369402   
O227     O      0.331480000000     0.420400000000     0.526990000000    -0.373224   
O228     O      0.375420000000     0.505710000000     0.528710000000    -0.328417   
O229     O      0.338750000000     0.327290000000     0.427480000000    -0.370346   
O230     O      0.407500000000     0.340950000000     0.381280000000    -0.342355   
O231     O      0.504370000000     0.429040000000     0.602190000000    -0.372028   
O232     O      0.478970000000     0.492340000000     0.600870000000    -0.376107   
O233     O      0.455090000000     0.329440000000     0.567380000000    -0.3351     
O234     O      0.599440000000     0.424050000000     0.560230000000    -0.52434    
O235     O      0.286380000000     0.326590000000     0.495570000000    -0.516481   
O236     O      0.292890000000     0.415570000000     0.416320000000    -0.356827   
O237     O      0.441070000000     0.383890000000     0.464730000000    -0.494191   
O238     O      0.432040000000     0.430980000000     0.527180000000    -0.628005   
O239     O      0.629880000000     0.621260000000     0.502200000000    -0.372778   
O240     O      0.557980000000     0.607900000000     0.544950000000    -0.342329   
O241     O      0.464600000000     0.524790000000     0.320090000000    -0.367674   
O242     O      0.477400000000     0.454030000000     0.321150000000    -0.371031   
O243     O      0.443080000000     0.599270000000     0.432790000000    -0.36892    
O244     O      0.452800000000     0.591180000000     0.508940000000    -0.365311   
O245     O      0.621480000000     0.534930000000     0.387750000000    -0.348771   
O246     O      0.588130000000     0.452670000000     0.378450000000    -0.336246   
O247     O      0.683790000000     0.626080000000     0.432580000000    -0.522583   
O248     O      0.673670000000     0.530420000000     0.501110000000    -0.360776   
O249     O      0.510800000000     0.622980000000     0.355800000000    -0.337593   
O250     O      0.367270000000     0.526950000000     0.362120000000    -0.525457   
O251     O      0.525800000000     0.567940000000     0.457800000000    -0.631234   
O252     O      0.534620000000     0.520100000000     0.395980000000    -0.474145   
O253     O      0.552620000000     0.505350000000     0.525470000000    -0.496179   
O254     O      0.413530000000     0.446350000000     0.397310000000    -0.628264   
O255     O      0.558380000000     0.456470000000     0.461620000000    -0.627198   
O256     O      0.408260000000     0.495160000000     0.461010000000    -0.486475   
Zr1      Zr     0.094160000000     0.004900000000     0.953320000000     1.35296    
Zr2      Zr     0.976250000000     0.039830000000     0.894990000000     1.3665     
Zr3      Zr     0.988230000000     0.911590000000     0.044420000000     1.37158    
Zr4      Zr     0.869080000000     0.945940000000     0.985860000000     1.36238    
Zr5      Zr     0.018880000000     0.050720000000     0.020900000000     1.37414    
Zr6      Zr     0.943570000000     0.900030000000     0.917640000000     1.35549    
Zr7      Zr     0.926440000000     0.869100000000     0.472070000000     1.3814     
Zr8      Zr     0.923270000000     0.979780000000     0.386780000000     1.37636    
Zr9      Zr     0.036150000000     0.972510000000     0.551040000000     1.38218    
Zr10     Zr     0.035350000000     0.083400000000     0.465810000000     1.38933    
Zr11     Zr     0.066180000000     0.982460000000     0.427530000000     1.3525     
Zr12     Zr     0.893170000000     0.969650000000     0.509740000000     1.34507    
Zr13     Zr     0.007100000000     0.410850000000     0.030750000000     1.38606    
Zr14     Zr     0.863180000000     0.400260000000     0.968510000000     1.37358    
Zr15     Zr     0.098230000000     0.545180000000     0.962350000000     1.37157    
Zr16     Zr     0.953530000000     0.535510000000     0.900640000000     1.37652    
Zr17     Zr     0.987320000000     0.424510000000     0.903100000000     1.35715    
Zr18     Zr     0.973180000000     0.521410000000     0.026840000000     1.36081    
Zr19     Zr     0.974570000000     0.415600000000     0.544920000000     1.37159    
Zr20     Zr     0.861970000000     0.426850000000     0.453610000000     1.38069    
Zr21     Zr     0.102100000000     0.528170000000     0.478210000000     1.36795    
Zr22     Zr     0.989460000000     0.539200000000     0.386080000000     1.36897    
Zr23     Zr     0.985100000000     0.406760000000     0.423500000000     1.35384    
Zr24     Zr     0.976310000000     0.547850000000     0.507120000000     1.34857    
Zr25     Zr     0.426140000000     0.975510000000     0.890430000000     1.37448    
Zr26     Zr     0.426670000000     0.864300000000     0.976790000000     1.38709    
Zr27     Zr     0.539090000000     0.077860000000     0.968850000000     1.38325    
Zr28     Zr     0.539830000000     0.966500000000     0.054450000000     1.37889    
Zr29     Zr     0.398370000000     0.966940000000     0.014570000000     1.34551    
Zr30     Zr     0.568200000000     0.974810000000     0.930490000000     1.3408     
Zr31     Zr     0.458950000000     0.031010000000     0.401360000000     1.37127    
Zr32     Zr     0.370580000000     0.934110000000     0.500130000000     1.37765    
Zr33     Zr     0.594230000000     0.012210000000     0.447010000000     1.37086    
Zr34     Zr     0.505330000000     0.915250000000     0.545520000000     1.37705    
Zr35     Zr     0.518520000000     0.048800000000     0.523210000000     1.36484    
Zr36     Zr     0.445600000000     0.898320000000     0.422620000000     1.36808    
Zr37     Zr     0.477290000000     0.413550000000     0.041500000000     1.37656    
Zr38     Zr     0.362510000000     0.420420000000     0.950900000000     1.38409    
Zr39     Zr     0.601830000000     0.523850000000     0.971730000000     1.37138    
Zr40     Zr     0.487570000000     0.530820000000     0.880180000000     1.38164    
Zr41     Zr     0.484740000000     0.399990000000     0.920170000000     1.35878    
Zr42     Zr     0.477560000000     0.544870000000     0.000720000000     1.34782    
Zr43     Zr     0.508900000000     0.413430000000     0.526250000000     1.38822    
Zr44     Zr     0.365870000000     0.403990000000     0.463990000000     1.37928    
Zr45     Zr     0.601090000000     0.547880000000     0.459250000000     1.37013    
Zr46     Zr     0.458020000000     0.538390000000     0.396330000000     1.38548    
Zr47     Zr     0.490440000000     0.427400000000     0.398520000000     1.36302    
Zr48     Zr     0.475270000000     0.523730000000     0.523630000000     1.365      


