data_structure

_audit_creation_method RASPA-1.0
_audit_creation_date 2023-6-4
_audit_author_name 'Poobodin Mano'

_cell_length_a    35.0235
_cell_length_b    37.8703
_cell_length_c    38.7423
_cell_angle_alpha 82.7549
_cell_angle_beta  96.3297
_cell_angle_gamma 119.44
_cell_volume      44323.8

_symmetry_cell_setting          triclinic
_symmetry_space_group_name_Hall 'P 1'
_symmetry_space_group_name_H-M  'P 1'
_symmetry_Int_Tables_number     1

_symmetry_equiv_pos_as_xyz 'x,y,z'

loop_
_atom_site_label
_atom_site_type_symbol
_atom_site_fract_x
_atom_site_fract_y
_atom_site_fract_z
_atom_site_charge
C1       C      0.110310000000     0.082690000000     0.997790000000     0.351667   
C2       C      0.928160000000     0.953440000000     0.847300000000     0.348726   
C3       C      0.011790000000     0.111670000000     0.955080000000     0.356276   
C4       C      0.035730000000     0.914940000000     0.905940000000     0.352768   
C5       C      0.931510000000     0.829840000000     0.983320000000     0.353213   
C6       C      0.904350000000     0.022530000000     0.035340000000     0.35175    
C7       C      0.830360000000     0.858250000000     0.940360000000     0.346821   
C8       C      0.006660000000     0.985670000000     0.092330000000     0.348846   
C9       C      0.008100000000     0.885430000000     0.431480000000     0.348745   
C10      C      0.823340000000     0.953530000000     0.437120000000     0.344624   
C11      C      0.999480000000     0.979380000000     0.351340000000     0.346146   
C12      C      0.841350000000     0.871470000000     0.522430000000     0.343559   
C13      C      0.938960000000     0.970140000000     0.588770000000     0.349666   
C14      C      0.103200000000     0.088420000000     0.421290000000     0.345669   
C15      C      0.928630000000     0.073740000000     0.502460000000     0.34555    
C16      C      0.119900000000     0.008100000000     0.501140000000     0.349763   
C17      C      0.015260000000     0.371840000000     0.964420000000     0.353316   
C18      C      0.851920000000     0.456810000000     0.028520000000     0.351655   
C19      C      0.879850000000     0.344250000000     0.917860000000     0.349696   
C20      C      0.993680000000     0.471750000000     0.093440000000     0.349453   
C21      C      0.062090000000     0.600250000000     0.018290000000     0.343536   
C22      C      0.953460000000     0.477320000000     0.843790000000     0.356106   
C23      C      0.921670000000     0.568570000000     0.973770000000     0.355923   
C24      C      0.080130000000     0.495220000000     0.899410000000     0.332203   
C25      C      0.955540000000     0.347220000000     0.496590000000     0.342921   
C26      C      0.852780000000     0.510580000000     0.480880000000     0.356395   
C27      C      0.866480000000     0.353140000000     0.423010000000     0.352538   
C28      C      0.954890000000     0.497030000000     0.583730000000     0.358011   
C29      C      0.063830000000     0.594530000000     0.524540000000     0.337016   
C30      C      0.997860000000     0.469780000000     0.351910000000     0.350712   
C31      C      0.980830000000     0.613060000000     0.435640000000     0.341438   
C32      C      0.085080000000     0.456110000000     0.446730000000     0.353482   
C33      C      0.323610000000     0.947580000000     0.934680000000     0.347181   
C34      C      0.511640000000     0.881210000000     0.928280000000     0.345188   
C35      C      0.335280000000     0.862140000000     0.010170000000     0.342869   
C36      C      0.506580000000     0.990710000000     0.847700000000     0.346365   
C37      C      0.604760000000     0.084780000000     0.922480000000     0.340741   
C38      C      0.436690000000     0.959100000000     0.087300000000     0.344672   
C39      C      0.616100000000     0.992670000000     0.001040000000     0.339483   
C40      C      0.430830000000     0.065740000000     0.007600000000     0.344824   
C41      C      0.503300000000     0.111350000000     0.446270000000     0.355571   
C42      C      0.333380000000     0.852500000000     0.451250000000     0.351023   
C43      C      0.405840000000     0.031260000000     0.527830000000     0.352382   
C44      C      0.426030000000     0.947450000000     0.346620000000     0.346603   
C45      C      0.533620000000     0.916870000000     0.402820000000     0.350747   
C46      C      0.515970000000     0.998720000000     0.588560000000     0.341706   
C47      C      0.429720000000     0.832530000000     0.490420000000     0.356939   
C48      C      0.611690000000     0.086450000000     0.492070000000     0.344257   
C49      C      0.445990000000     0.335850000000     0.993260000000     0.338179   
C50      C      0.364480000000     0.514480000000     0.984360000000     0.35271    
C51      C      0.358280000000     0.349960000000     0.921290000000     0.354115   
C52      C      0.457490000000     0.489570000000     0.083650000000     0.352962   
C53      C      0.579660000000     0.593330000000     0.017310000000     0.347653   
C54      C      0.495430000000     0.461730000000     0.849650000000     0.35138    
C55      C      0.493580000000     0.610980000000     0.937270000000     0.338921   
C56      C      0.574300000000     0.446260000000     0.936860000000     0.331247   
C57      C      0.507350000000     0.371550000000     0.456570000000     0.355143   
C58      C      0.367970000000     0.468230000000     0.532470000000     0.34494    
C59      C      0.375810000000     0.348670000000     0.422580000000     0.350371   
C60      C      0.503330000000     0.475370000000     0.590900000000     0.347274   
C61      C      0.579190000000     0.602330000000     0.517200000000     0.347655   
C62      C      0.446710000000     0.482190000000     0.342210000000     0.352588   
C63      C      0.439220000000     0.582550000000     0.477460000000     0.356422   
C64      C      0.570830000000     0.493800000000     0.388550000000     0.329407   
C65      C      0.487560000000     0.426400000000     0.760570000000    -0.0659634  
C66      C      0.513940000000     0.463620000000     0.741750000000     0.0219821  
C67      C      0.538140000000     0.498740000000     0.759760000000    -0.0664707  
C68      C      0.533610000000     0.497420000000     0.795210000000     0.0231389  
C69      C      0.505030000000     0.460860000000     0.813650000000    -0.106884   
C70      C      0.483240000000     0.425000000000     0.796340000000     0.0214392  
C71      C      0.513310000000     0.466960000000     0.703140000000     0.0217632  
C72      C      0.514790000000     0.437700000000     0.685180000000    -0.0658851  
C73      C      0.512600000000     0.440800000000     0.648680000000     0.0197536  
C74      C      0.508430000000     0.473000000000     0.629490000000    -0.106354   
C75      C      0.507400000000     0.502380000000     0.647630000000     0.0224787  
C76      C      0.509800000000     0.499380000000     0.683920000000    -0.066255   
C77      C      0.436500000000     0.516560000000     0.168240000000    -0.066721   
C78      C      0.449170000000     0.492980000000     0.192810000000     0.0232419  
C79      C      0.467590000000     0.471340000000     0.181140000000    -0.068495   
C80      C      0.471170000000     0.471390000000     0.145790000000     0.0261275  
C81      C      0.456890000000     0.493450000000     0.121020000000    -0.108555   
C82      C      0.440450000000     0.516890000000     0.132530000000     0.0231192  
C83      C      0.443110000000     0.489950000000     0.230590000000     0.0219815  
C84      C      0.453800000000     0.524510000000     0.247700000000    -0.0659281  
C85      C      0.453070000000     0.521800000000     0.284040000000     0.0226801  
C86      C      0.441950000000     0.484550000000     0.303770000000    -0.107705   
C87      C      0.428960000000     0.449680000000     0.286400000000     0.0234531  
C88      C      0.429210000000     0.452290000000     0.250270000000    -0.0664809  
C89      C      0.430900000000     0.735520000000     0.522700000000    -0.0674275  
C90      C      0.402450000000     0.709760000000     0.497370000000     0.0225328  
C91      C      0.377380000000     0.722560000000     0.473850000000    -0.0676048  
C92      C      0.384190000000     0.762020000000     0.473190000000     0.0252313  
C93      C      0.415770000000     0.789020000000     0.496320000000    -0.111043   
C94      C      0.437330000000     0.774900000000     0.522290000000     0.0235857  
C95      C      0.404490000000     0.672900000000     0.492050000000     0.0229108  
C96      C      0.408150000000     0.665430000000     0.458240000000    -0.0675294  
C97      C      0.418080000000     0.635130000000     0.453300000000     0.0223255  
C98      C      0.424920000000     0.612100000000     0.482110000000    -0.110817   
C99      C      0.418820000000     0.618050000000     0.515760000000     0.0263691  
C100     C      0.408610000000     0.648160000000     0.520670000000    -0.0684746  
C101     C      0.552970000000     0.221080000000     0.463150000000    -0.069669   
C102     C      0.527500000000     0.233530000000     0.439840000000     0.0231954  
C103     C      0.498050000000     0.207160000000     0.415260000000    -0.0686114  
C104     C      0.491870000000     0.167810000000     0.415790000000     0.0246046  
C105     C      0.514730000000     0.154370000000     0.441150000000    -0.112793   
C106     C      0.546380000000     0.181760000000     0.463980000000     0.0265357  
C107     C      0.527660000000     0.271660000000     0.444060000000     0.0220539  
C108     C      0.526270000000     0.281380000000     0.477570000000    -0.0675117  
C109     C      0.521130000000     0.314710000000     0.481790000000     0.0228828  
C110     C      0.516980000000     0.338700000000     0.452530000000    -0.110759   
C111     C      0.520230000000     0.329950000000     0.419070000000     0.0244328  
C112     C      0.525490000000     0.296660000000     0.414890000000    -0.0681588  
C113     C      0.533950000000     0.976980000000     0.685680000000    -0.0666788  
C114     C      0.532880000000     0.008920000000     0.699690000000     0.0217299  
C115     C      0.530600000000     0.039790000000     0.676590000000    -0.064627   
C116     C      0.527250000000     0.037660000000     0.640440000000     0.0185772  
C117     C      0.525830000000     0.004470000000     0.626490000000    -0.101269   
C118     C      0.530390000000     0.974750000000     0.649610000000     0.0178562  
C119     C      0.529830000000     0.007810000000     0.737960000000     0.0239068  
C120     C      0.499510000000     0.016730000000     0.750220000000    -0.0673179  
C121     C      0.492930000000     0.011940000000     0.785760000000     0.024895   
C122     C      0.516610000000     0.998230000000     0.810270000000    -0.105317   
C123     C      0.548140000000     0.990640000000     0.798250000000     0.021467   
C124     C      0.554490000000     0.995140000000     0.762440000000    -0.067501   
C125     C      0.444830000000     0.933560000000     0.184730000000    -0.0670315  
C126     C      0.413340000000     0.940830000000     0.197080000000     0.0219049  
C127     C      0.387930000000     0.952760000000     0.172730000000    -0.0656865  
C128     C      0.394500000000     0.957910000000     0.136910000000     0.0208014  
C129     C      0.427040000000     0.951790000000     0.124800000000    -0.104977   
C130     C      0.451640000000     0.939030000000     0.149220000000     0.0221067  
C131     C      0.409850000000     0.938850000000     0.235370000000     0.0210418  
C132     C      0.412990000000     0.908120000000     0.258070000000    -0.0650078  
C133     C      0.416120000000     0.909650000000     0.294300000000     0.0199729  
C134     C      0.416490000000     0.942130000000     0.308650000000    -0.103541   
C135     C      0.411050000000     0.971650000000     0.285900000000     0.0200632  
C136     C      0.407670000000     0.969970000000     0.249790000000    -0.0656211  
C137     C      0.557970000000     0.809460000000     0.934510000000    -0.0650021  
C138     C      0.525260000000     0.777880000000     0.915290000000     0.0222303  
C139     C      0.492980000000     0.784480000000     0.895390000000    -0.0653977  
C140     C      0.491090000000     0.820280000000     0.897160000000     0.0234089  
C141     C      0.522030000000     0.850650000000     0.918180000000    -0.102835   
C142     C      0.556560000000     0.845700000000     0.935730000000     0.0227676  
C143     C      0.520810000000     0.736360000000     0.919970000000     0.0203447  
C144     C      0.512530000000     0.713440000000     0.891450000000    -0.064698   
C145     C      0.504500000000     0.672970000000     0.896740000000     0.0170248  
C146     C      0.503470000000     0.654290000000     0.930710000000    -0.0993096  
C147     C      0.511770000000     0.677500000000     0.959060000000     0.0180798  
C148     C      0.520810000000     0.717980000000     0.953770000000    -0.0650487  
C149     C      0.426800000000     0.230680000000     0.978440000000    -0.0652891  
C150     C      0.422030000000     0.211370000000     0.012270000000     0.019714   
C151     C      0.425310000000     0.233220000000     0.040270000000    -0.0649038  
C152     C      0.432530000000     0.273430000000     0.034350000000     0.0158936  
C153     C      0.437790000000     0.292970000000     0.000380000000    -0.0989213  
C154     C      0.435200000000     0.270970000000     0.972640000000     0.0166789  
C155     C      0.417210000000     0.169750000000     0.017820000000     0.0217078  
C156     C      0.385370000000     0.138300000000     0.998060000000    -0.0653098  
C157     C      0.386560000000     0.101800000000     0.997850000000     0.0208195  
C158     C      0.420140000000     0.096480000000     0.016870000000    -0.102693   
C159     C      0.450250000000     0.126850000000     0.038290000000     0.0227262  
C160     C      0.448440000000     0.162880000000     0.039130000000    -0.0656381  
C161     C      0.728630000000     0.159830000000     0.470380000000    -0.0648921  
C162     C      0.728530000000     0.197120000000     0.466790000000     0.0211801  
C163     C      0.692420000000     0.198370000000     0.478300000000    -0.065226   
C164     C      0.655700000000     0.162610000000     0.490270000000     0.0189195  
C165     C      0.654210000000     0.124860000000     0.490720000000    -0.103722   
C166     C      0.691980000000     0.124190000000     0.482240000000     0.0234111  
C167     C      0.764910000000     0.234200000000     0.449780000000     0.0220216  
C168     C      0.809060000000     0.243450000000     0.456580000000    -0.0653357  
C169     C      0.843060000000     0.280700000000     0.443510000000     0.0214816  
C170     C      0.833600000000     0.309450000000     0.423740000000    -0.105066   
C171     C      0.789500000000     0.298430000000     0.414130000000     0.0230459  
C172     C      0.755590000000     0.261280000000     0.426960000000    -0.0669874  
C173     C      0.183310000000     0.669200000000     0.510240000000    -0.0668436  
C174     C      0.181130000000     0.703480000000     0.493680000000     0.0189036  
C175     C      0.140430000000     0.702940000000     0.490680000000    -0.0656696  
C176     C      0.102630000000     0.668440000000     0.502680000000     0.0149881  
C177     C      0.104630000000     0.633660000000     0.518110000000    -0.10929    
C178     C      0.145670000000     0.634910000000     0.522520000000     0.017981   
C179     C      0.221270000000     0.739750000000     0.480060000000     0.0227457  
C180     C      0.262120000000     0.752170000000     0.498560000000    -0.0668009  
C181     C      0.299290000000     0.787560000000     0.487280000000     0.0265005  
C182     C      0.296610000000     0.811300000000     0.457280000000    -0.105713   
C183     C      0.256460000000     0.798660000000     0.438010000000     0.0228442  
C184     C      0.219090000000     0.762950000000     0.449170000000    -0.0663025  
C185     C      0.738880000000     0.493090000000     0.478270000000    -0.067027   
C186     C      0.739520000000     0.519790000000     0.449260000000     0.0225239  
C187     C      0.780370000000     0.550230000000     0.437280000000    -0.0675754  
C188     C      0.819260000000     0.551110000000     0.451650000000     0.0255777  
C189     C      0.817780000000     0.521460000000     0.477960000000    -0.110316   
C190     C      0.777610000000     0.493590000000     0.492170000000     0.0246127  
C191     C      0.697710000000     0.513410000000     0.430000000000     0.0233203  
C192     C      0.691940000000     0.546450000000     0.415200000000    -0.0639625  
C193     C      0.651480000000     0.539850000000     0.399040000000     0.0188846  
C194     C      0.615850000000     0.500210000000     0.397790000000    -0.111872   
C195     C      0.622670000000     0.467120000000     0.410150000000     0.0179882  
C196     C      0.663080000000     0.473670000000     0.426040000000    -0.0653618  
C197     C      0.164240000000     0.416220000000     0.469710000000    -0.0652401  
C198     C      0.204290000000     0.453130000000     0.467290000000     0.0231928  
C199     C      0.203360000000     0.487720000000     0.449990000000    -0.0667748  
C200     C      0.163770000000     0.486430000000     0.438330000000     0.0279417  
C201     C      0.123750000000     0.451030000000     0.444580000000    -0.108327   
C202     C      0.124180000000     0.415270000000     0.458730000000     0.0220426  
C203     C      0.246330000000     0.456920000000     0.484800000000     0.0236521  
C204     C      0.246520000000     0.431940000000     0.515060000000    -0.0638117  
C205     C      0.286160000000     0.436690000000     0.531780000000     0.0213444  
C206     C      0.326430000000     0.467550000000     0.519540000000    -0.106508   
C207     C      0.326350000000     0.493110000000     0.490070000000     0.0225233  
C208     C      0.287070000000     0.487340000000     0.472510000000    -0.0661541  
C209     C      0.954870000000     0.458860000000     0.750420000000    -0.0662897  
C210     C      0.952940000000     0.492450000000     0.731950000000     0.0222098  
C211     C      0.948810000000     0.519880000000     0.750390000000    -0.0664797  
C212     C      0.948080000000     0.514510000000     0.786700000000     0.022901   
C213     C      0.951540000000     0.481620000000     0.805260000000    -0.10775    
C214     C      0.954370000000     0.453600000000     0.786640000000     0.0238848  
C215     C      0.956550000000     0.499050000000     0.693690000000     0.0241042  
C216     C      0.986510000000     0.491680000000     0.678890000000    -0.0688803  
C217     C      0.987150000000     0.493240000000     0.642960000000     0.0280217  
C218     C      0.958320000000     0.502750000000     0.620930000000    -0.108432   
C219     C      0.930400000000     0.512990000000     0.635350000000     0.0249018  
C220     C      0.929380000000     0.510980000000     0.671650000000    -0.066726   
C221     C      0.998860000000     0.498180000000     0.185380000000    -0.0688485  
C222     C      0.007910000000     0.469210000000     0.205290000000     0.0231788  
C223     C      0.012620000000     0.441130000000     0.188220000000    -0.0679911  
C224     C      0.008500000000     0.442150000000     0.151850000000     0.0217394  
C225     C      0.999180000000     0.471070000000     0.131910000000    -0.111166   
C226     C      0.994530000000     0.499110000000     0.149160000000     0.0235551  
C227     C      0.011140000000     0.468110000000     0.243790000000     0.0221347  
C228     C      0.033480000000     0.504650000000     0.260000000000    -0.0667795  
C229     C      0.031070000000     0.504710000000     0.295590000000     0.0225641  
C230     C      0.006440000000     0.468200000000     0.315840000000    -0.107097   
C231     C      0.986780000000     0.431250000000     0.300210000000     0.0209608  
C232     C      0.989040000000     0.431220000000     0.264360000000    -0.0670523  
C233     C      0.691870000000     0.193340000000     0.898390000000    -0.0645476  
C234     C      0.730200000000     0.189900000000     0.899350000000     0.0203941  
C235     C      0.726240000000     0.150780000000     0.905210000000    -0.0643173  
C236     C      0.685200000000     0.116220000000     0.911010000000     0.0183814  
C237     C      0.647300000000     0.120080000000     0.911610000000    -0.100391   
C238     C      0.651140000000     0.159020000000     0.904550000000     0.0190275  
C239     C      0.774070000000     0.227510000000     0.897660000000     0.0220871  
C240     C      0.779820000000     0.261940000000     0.875280000000    -0.0652624  
C241     C      0.817480000000     0.299780000000     0.879050000000     0.0230583  
C242     C      0.850330000000     0.303920000000     0.905020000000    -0.104244   
C243     C      0.846350000000     0.269060000000     0.925510000000     0.0229719  
C244     C      0.808780000000     0.231170000000     0.921710000000    -0.0655995  
C245     C      0.161830000000     0.684700000000     0.059100000000    -0.0657318  
C246     C      0.166710000000     0.718440000000     0.036110000000     0.0213042  
C247     C      0.131490000000     0.713670000000     0.012220000000    -0.0654373  
C248     C      0.094260000000     0.675340000000     0.009220000000     0.0217975  
C249     C      0.091140000000     0.641130000000     0.030360000000    -0.10366    
C250     C      0.124530000000     0.646430000000     0.056140000000     0.0211211  
C251     C      0.210280000000     0.756380000000     0.033640000000     0.0203239  
C252     C      0.213740000000     0.795320000000     0.027470000000    -0.0647922  
C253     C      0.254600000000     0.830140000000     0.021460000000     0.0199043  
C254     C      0.292740000000     0.826670000000     0.020860000000    -0.101687   
C255     C      0.289320000000     0.787890000000     0.028010000000     0.0180716  
C256     C      0.248850000000     0.753380000000     0.034460000000    -0.0651678  
C257     C      0.731540000000     0.417860000000     0.025460000000    -0.0656775  
C258     C      0.729490000000     0.453540000000     0.013450000000     0.0218839  
C259     C      0.767990000000     0.491300000000     0.016880000000    -0.0654012  
C260     C      0.808440000000     0.492970000000     0.027280000000     0.0223894  
C261     C      0.811040000000     0.456960000000     0.034670000000    -0.105932   
C262     C      0.771760000000     0.419620000000     0.036300000000     0.0244123  
C263     C      0.689080000000     0.451030000000     0.993780000000     0.0219204  
C264     C      0.692720000000     0.479310000000     0.965230000000    -0.068147   
C265     C      0.655410000000     0.476410000000     0.945780000000     0.0217593  
C266     C      0.613450000000     0.444760000000     0.953810000000    -0.110123   
C267     C      0.609520000000     0.415730000000     0.981600000000     0.0235185  
C268     C      0.646860000000     0.419030000000     0.001560000000    -0.0647063  
C269     C      0.201090000000     0.551080000000     0.928420000000    -0.063422   
C270     C      0.208510000000     0.518690000000     0.942280000000     0.0225417  
C271     C      0.174630000000     0.478610000000     0.938420000000    -0.0656094  
C272     C      0.133790000000     0.471030000000     0.922640000000     0.0173725  
C273     C      0.125560000000     0.503350000000     0.910380000000    -0.109838   
C274     C      0.160060000000     0.543470000000     0.912640000000     0.021696   
C275     C      0.251530000000     0.525970000000     0.959850000000     0.0223556  
C276     C      0.252910000000     0.500270000000     0.988980000000    -0.0663374  
C277     C      0.292290000000     0.500740000000     0.000840000000     0.0242028  
C278     C      0.331160000000     0.527320000000     0.984190000000    -0.10771    
C279     C      0.330880000000     0.556170000000     0.957710000000     0.0234221  
C280     C      0.291340000000     0.555530000000     0.945600000000    -0.0663298  
C281     C      0.763080000000     0.767080000000     0.561390000000    -0.065286   
C282     C      0.722460000000     0.761180000000     0.545440000000     0.0213949  
C283     C      0.720630000000     0.794860000000     0.526840000000    -0.0643449  
C284     C      0.759090000000     0.832320000000     0.521830000000     0.0202512  
C285     C      0.800050000000     0.836550000000     0.534940000000    -0.102222   
C286     C      0.801440000000     0.804050000000     0.555740000000     0.0243229  
C287     C      0.684360000000     0.719080000000     0.543900000000     0.02218    
C288     C      0.692120000000     0.686980000000     0.539110000000    -0.0676618  
C289     C      0.657450000000     0.648560000000     0.532850000000     0.0240593  
C290     C      0.613760000000     0.640740000000     0.531150000000    -0.106392   
C291     C      0.605340000000     0.671850000000     0.537810000000     0.0206088  
C292     C      0.640420000000     0.710830000000     0.543920000000    -0.0656862  
C293     C      0.190660000000     0.195160000000     0.393820000000    -0.0657111  
C294     C      0.229260000000     0.192210000000     0.400940000000     0.0216099  
C295     C      0.225670000000     0.153720000000     0.411000000000    -0.0659169  
C296     C      0.184390000000     0.119250000000     0.415390000000     0.0220007  
C297     C      0.146010000000     0.122820000000     0.410540000000    -0.104157   
C298     C      0.149550000000     0.160940000000     0.398850000000     0.02238    
C299     C      0.272510000000     0.229930000000     0.402450000000     0.0225276  
C300     C      0.283500000000     0.262250000000     0.376280000000    -0.0662169  
C301     C      0.320110000000     0.300490000000     0.381270000000     0.0225473  
C302     C      0.345700000000     0.307050000000     0.412740000000    -0.105071   
C303     C      0.336280000000     0.274220000000     0.437950000000     0.0258638  
C304     C      0.300370000000     0.235920000000     0.432700000000    -0.0664073  
C305     C      0.604970000000     0.871150000000     0.418460000000    -0.0672153  
C306     C      0.639450000000     0.899430000000     0.397670000000     0.0219824  
C307     C      0.630570000000     0.922870000000     0.370200000000    -0.0646154  
C308     C      0.590310000000     0.922590000000     0.367090000000     0.0259318  
C309     C      0.558450000000     0.898980000000     0.391400000000    -0.10729    
C310     C      0.564520000000     0.870690000000     0.415130000000     0.0194179  
C311     C      0.685700000000     0.909590000000     0.407940000000     0.0208345  
C312     C      0.701120000000     0.914200000000     0.443120000000    -0.0646886  
C313     C      0.745730000000     0.928820000000     0.452640000000     0.0186284  
C314     C      0.776060000000     0.939170000000     0.427230000000    -0.103009   
C315     C      0.760420000000     0.933790000000     0.392120000000     0.0201966  
C316     C      0.715870000000     0.919270000000     0.382620000000    -0.0660616  
C317     C      0.337500000000     0.081030000000     0.513680000000    -0.0663236  
C318     C      0.303250000000     0.054320000000     0.535370000000     0.0221469  
C319     C      0.311260000000     0.029580000000     0.562080000000    -0.0641372  
C320     C      0.350110000000     0.027360000000     0.563820000000     0.025416   
C321     C      0.381700000000     0.049990000000     0.539080000000    -0.105972   
C322     C      0.376580000000     0.079020000000     0.515660000000     0.0220049  
C323     C      0.257530000000     0.046930000000     0.526610000000     0.0214137  
C324     C      0.229200000000     0.039540000000     0.552860000000    -0.065757   
C325     C      0.184710000000     0.027310000000     0.544620000000     0.0206232  
C326     C      0.167330000000     0.021750000000     0.509920000000    -0.102721   
C327     C      0.195970000000     0.029980000000     0.483630000000     0.0200923  
C328     C      0.240440000000     0.042520000000     0.491850000000    -0.0651227  
C329     C      0.031060000000     0.725190000000     0.403780000000    -0.06647    
C330     C      0.003160000000     0.736090000000     0.417480000000     0.0223227  
C331     C      0.967640000000     0.706150000000     0.436400000000    -0.067136   
C332     C      0.960310000000     0.666220000000     0.441890000000     0.0221042  
C333     C      0.987800000000     0.655040000000     0.428000000000    -0.103521   
C334     C      0.023080000000     0.684790000000     0.408610000000     0.0201185  
C335     C      0.010180000000     0.778320000000     0.412700000000     0.0223264  
C336     C      0.048800000000     0.810870000000     0.426010000000    -0.0654619  
C337     C      0.050580000000     0.848330000000     0.428900000000     0.0199877  
C338     C      0.013780000000     0.853440000000     0.418340000000    -0.104364   
C339     C      0.977040000000     0.822120000000     0.401960000000     0.0251889  
C340     C      0.975220000000     0.784980000000     0.399230000000    -0.0671126  
C341     C      0.925380000000     0.240700000000     0.539530000000    -0.0659475  
C342     C      0.928340000000     0.221930000000     0.511580000000     0.0201294  
C343     C      0.942020000000     0.244990000000     0.479720000000    -0.0659246  
C344     C      0.952180000000     0.285730000000     0.475580000000     0.0181082  
C345     C      0.947970000000     0.304580000000     0.502970000000    -0.102186   
C346     C      0.934610000000     0.281560000000     0.535160000000     0.0170152  
C347     C      0.919500000000     0.179070000000     0.515220000000     0.0220995  
C348     C      0.943920000000     0.166750000000     0.540050000000    -0.0652995  
C349     C      0.943570000000     0.129900000000     0.537990000000     0.0242602  
C350     C      0.918030000000     0.104400000000     0.511610000000    -0.104052   
C351     C      0.890870000000     0.115110000000     0.488600000000     0.0229244  
C352     C      0.891690000000     0.152200000000     0.490310000000    -0.0659393  
C353     C      0.944370000000     0.941630000000     0.685580000000    -0.0671568  
C354     C      0.914030000000     0.950450000000     0.697870000000     0.0216061  
C355     C      0.890280000000     0.964420000000     0.673740000000    -0.066215   
C356     C      0.897330000000     0.970000000000     0.638040000000     0.0214483  
C357     C      0.928790000000     0.962340000000     0.626010000000    -0.106493   
C358     C      0.951750000000     0.947600000000     0.650190000000     0.0219393  
C359     C      0.910200000000     0.947870000000     0.736020000000     0.0216974  
C360     C      0.910030000000     0.915170000000     0.757860000000    -0.0660599  
C361     C      0.913670000000     0.915930000000     0.794100000000     0.0207137  
C362     C      0.917830000000     0.949550000000     0.809290000000    -0.105671   
C363     C      0.915410000000     0.981130000000     0.787400000000     0.0190858  
C364     C      0.911540000000     0.980240000000     0.751190000000    -0.0676504  
C365     C      0.051360000000     0.010370000000     0.263880000000    -0.0652873  
C366     C      0.015790000000     0.985040000000     0.242190000000     0.0218306  
C367     C      0.975950000000     0.956940000000     0.256940000000    -0.0682601  
C368     C      0.971300000000     0.954660000000     0.292520000000     0.0226902  
C369     C      0.006610000000     0.979970000000     0.314350000000    -0.106968   
C370     C      0.046960000000     0.007510000000     0.299850000000     0.0222532  
C371     C      0.019280000000     0.987170000000     0.204170000000     0.0203737  
C372     C      0.031300000000     0.023670000000     0.183050000000    -0.0643499  
C373     C      0.028400000000     0.023810000000     0.146590000000     0.0222562  
C374     C      0.013850000000     0.987460000000     0.130780000000    -0.10649    
C375     C      0.003990000000     0.951490000000     0.152340000000     0.0236725  
C376     C      0.006460000000     0.951350000000     0.188460000000    -0.0667464  
C377     C      0.694320000000     0.677410000000     0.011390000000    -0.0675485  
C378     C      0.687850000000     0.710470000000     0.997760000000     0.0212307  
C379     C      0.645780000000     0.706430000000     0.999380000000    -0.065373   
C380     C      0.610360000000     0.668950000000     0.010370000000     0.0203643  
C381     C      0.616510000000     0.635080000000     0.020390000000    -0.10779    
C382     C      0.659440000000     0.640710000000     0.023300000000     0.0231537  
C383     C      0.724270000000     0.747680000000     0.980480000000     0.0228213  
C384     C      0.768390000000     0.758250000000     0.989880000000    -0.0675506  
C385     C      0.802500000000     0.792010000000     0.973370000000     0.0229796  
C386     C      0.793890000000     0.817290000000     0.947940000000    -0.106215   
C387     C      0.750270000000     0.807470000000     0.938310000000     0.0256731  
C388     C      0.715710000000     0.772400000000     0.953800000000    -0.0650919  
C389     C      0.301740000000     0.240420000000     0.954230000000    -0.0655509  
C390     C      0.257780000000     0.232190000000     0.952460000000     0.0223673  
C391     C      0.246810000000     0.260270000000     0.933060000000    -0.0667397  
C392     C      0.279500000000     0.297300000000     0.918820000000     0.0238406  
C393     C      0.323830000000     0.306900000000     0.923260000000    -0.105749   
C394     C      0.334280000000     0.277200000000     0.939370000000     0.0226063  
C395     C      0.223450000000     0.194740000000     0.970770000000     0.0222646  
C396     C      0.224480000000     0.157960000000     0.972700000000    -0.0655268  
C397     C      0.189530000000     0.121890000000     0.985770000000     0.0248207  
C398     C      0.152200000000     0.121460000000     0.996630000000    -0.106265   
C399     C      0.153020000000     0.158620000000     0.998070000000     0.0226445  
C400     C      0.188340000000     0.194970000000     0.985260000000    -0.0657726  
C401     C      0.833820000000     0.069300000000     0.022780000000    -0.0670335  
C402     C      0.798470000000     0.039710000000     0.042180000000     0.0219684  
C403     C      0.806280000000     0.014190000000     0.068190000000    -0.0627556  
C404     C      0.846400000000     0.014160000000     0.071090000000     0.0276741  
C405     C      0.879300000000     0.039530000000     0.048000000000    -0.106926   
C406     C      0.874100000000     0.069380000000     0.025860000000     0.0192857  
C407     C      0.752550000000     0.030950000000     0.031820000000     0.0208193  
C408     C      0.721570000000     0.019120000000     0.056980000000    -0.0645984  
C409     C      0.677400000000     0.006400000000     0.046980000000     0.0201369  
C410     C      0.662920000000     0.005030000000     0.011510000000    -0.0995314  
C411     C      0.694060000000     0.017420000000     0.986320000000     0.0178256  
C412     C      0.738250000000     0.030200000000     0.996350000000    -0.0637566  
C413     C      0.215960000000     0.915610000000     0.880510000000    -0.0652167  
C414     C      0.185890000000     0.904850000000     0.906220000000     0.0209145  
C415     C      0.201380000000     0.907420000000     0.941420000000    -0.0650623  
C416     C      0.245920000000     0.921320000000     0.950640000000     0.0198974  
C417     C      0.276210000000     0.932910000000     0.924910000000    -0.103417   
C418     C      0.260520000000     0.929320000000     0.889730000000     0.0186422  
C419     C      0.139800000000     0.895870000000     0.896640000000     0.0223611  
C420     C      0.131380000000     0.921040000000     0.870650000000    -0.0643156  
C421     C      0.091640000000     0.921660000000     0.868840000000     0.0252177  
C422     C      0.059750000000     0.897160000000     0.892920000000    -0.106638   
C423     C      0.065320000000     0.867580000000     0.915130000000     0.0223006  
C424     C      0.105220000000     0.867070000000     0.917140000000    -0.0665298  
C425     C      0.877060000000     0.720860000000     0.962020000000    -0.0683261  
C426     C      0.898370000000     0.705100000000     0.986720000000     0.0222403  
C427     C      0.926980000000     0.729430000000     0.012830000000    -0.0682497  
C428     C      0.936200000000     0.769640000000     0.012900000000     0.0236661  
C429     C      0.917400000000     0.786190000000     0.986590000000    -0.111999   
C430     C      0.886710000000     0.761140000000     0.961820000000     0.0245062  
C431     C      0.895360000000     0.665570000000     0.982790000000     0.0218947  
C432     C      0.895520000000     0.640080000000     0.012290000000    -0.0688113  
C433     C      0.901940000000     0.607250000000     0.009080000000     0.0239079  
C434     C      0.907720000000     0.598970000000     0.976230000000    -0.109886   
C435     C      0.903880000000     0.622430000000     0.946400000000     0.022622   
C436     C      0.898000000000     0.655630000000     0.949670000000    -0.0674932  
C437     C      0.031210000000     0.280450000000     0.988950000000    -0.066902   
C438     C      0.039840000000     0.273370000000     0.956630000000     0.0216639  
C439     C      0.044410000000     0.301150000000     0.927690000000    -0.0673964  
C440     C      0.038100000000     0.334190000000     0.930570000000     0.0236885  
C441     C      0.027280000000     0.340050000000     0.962500000000    -0.109331   
C442     C      0.025240000000     0.313620000000     0.991900000000     0.0224829  
C443     C      0.039770000000     0.235060000000     0.952800000000     0.0230912  
C444     C      0.057900000000     0.218620000000     0.979800000000    -0.0697051  
C445     C      0.050140000000     0.178980000000     0.979720000000     0.0259236  
C446     C      0.024980000000     0.155240000000     0.952220000000    -0.111437   
C447     C      0.009860000000     0.172770000000     0.923750000000     0.0238126  
C448     C      0.016960000000     0.212350000000     0.924150000000    -0.0682977  
H1       H      0.010150000000     0.980390000000     0.891170000000     0.193364   
H2       H      0.929700000000     0.034640000000     0.966330000000     0.192557   
H3       H      0.892290000000     0.877270000000     0.990710000000     0.196801   
H4       H      0.054540000000     0.992770000000     0.031090000000     0.197427   
H5       H      0.905110000000     0.049760000000     0.906020000000     0.131915   
H6       H      0.824500000000     0.960240000000     0.923880000000     0.20496    
H7       H      0.838700000000     0.889690000000     0.035040000000     0.12666    
H8       H      0.891940000000     0.860790000000     0.064980000000     0.185398   
H9       H      0.039650000000     0.895270000000     0.031400000000     0.141651   
H10      H      0.126360000000     0.991670000000     0.010140000000     0.196732   
H11      H      0.094510000000     0.039920000000     0.895580000000     0.126962   
H12      H      0.012250000000     0.068810000000     0.845380000000     0.202778   
H13      H      0.934380000000     0.862160000000     0.090490000000     0.20219    
H14      H      0.107260000000     0.949690000000     0.989090000000     0.201058   
H15      H      0.052450000000     0.081760000000     0.876830000000     0.194902   
H16      H      0.833670000000     0.992440000000     0.953590000000     0.196066   
H17      H      0.866810000000     0.910080000000     0.455160000000     0.197264   
H18      H      0.008820000000     0.038230000000     0.395220000000     0.192164   
H19      H      0.983750000000     0.040280000000     0.531260000000     0.189666   
H20      H      0.028880000000     0.930010000000     0.498160000000     0.195598   
H21      H      0.945640000000     0.040400000000     0.356380000000     0.133811   
H22      H      0.967200000000     0.106870000000     0.409690000000     0.206589   
H23      H      0.074070000000     0.113560000000     0.507480000000     0.133044   
H24      H      0.058760000000     0.066240000000     0.567470000000     0.185625   
H25      H      0.005540000000     0.917110000000     0.577970000000     0.140511   
H26      H      0.978610000000     0.851150000000     0.524240000000     0.196129   
H27      H      0.871760000000     0.843860000000     0.432580000000     0.124892   
H28      H      0.868600000000     0.891450000000     0.376180000000     0.187199   
H29      H      0.086230000000     0.042210000000     0.585700000000     0.202989   
H30      H      0.940110000000     0.848420000000     0.548170000000     0.198514   
H31      H      0.859130000000     0.925000000000     0.349460000000     0.201517   
H32      H      0.014890000000     0.118110000000     0.393990000000     0.196642   
H33      H      0.925130000000     0.426410000000     0.045400000000     0.19045    
H34      H      0.894000000000     0.429500000000     0.903860000000     0.197718   
H35      H      0.004730000000     0.572480000000     0.960950000000     0.197221   
H36      H      0.058280000000     0.459000000000     0.964800000000     0.19941    
H37      H      0.793080000000     0.363490000000     0.964790000000     0.149031   
H38      H      0.842900000000     0.473580000000     0.903510000000     0.20147    
H39      H      0.006400000000     0.588180000000     0.887190000000     0.130534   
H40      H      0.103940000000     0.611390000000     0.914170000000     0.193383   
H41      H      0.127250000000     0.541620000000     0.010140000000     0.141699   
H42      H      0.095230000000     0.447280000000     0.027680000000     0.199042   
H43      H      0.939910000000     0.363800000000     0.061950000000     0.1307     
H44      H      0.862730000000     0.329560000000     0.019440000000     0.198729   
H45      H      0.141860000000     0.611240000000     0.944440000000     0.201009   
H46      H      0.084380000000     0.455600000000     0.065920000000     0.203483   
H47      H      0.843470000000     0.353140000000     0.040330000000     0.192116   
H48      H      0.864960000000     0.509130000000     0.870530000000     0.204272   
H49      H      0.888040000000     0.456090000000     0.521050000000     0.189931   
H50      H      0.919880000000     0.449400000000     0.387290000000     0.199212   
H51      H      0.036810000000     0.580690000000     0.456970000000     0.195061   
H52      H      0.026390000000     0.433860000000     0.500430000000     0.192208   
H53      H      0.809590000000     0.434900000000     0.398360000000     0.14181    
H54      H      0.910190000000     0.541830000000     0.364200000000     0.206317   
H55      H      0.069720000000     0.584160000000     0.383890000000     0.132701   
H56      H      0.112000000000     0.601630000000     0.446830000000     0.185662   
H57      H      0.096620000000     0.492840000000     0.542920000000     0.128285   
H58      H      0.026680000000     0.428330000000     0.574880000000     0.185838   
H59      H      0.864770000000     0.364560000000     0.535440000000     0.137521   
H60      H      0.808820000000     0.389370000000     0.499270000000     0.189472   
H61      H      0.145280000000     0.581610000000     0.457810000000     0.202411   
H62      H      0.980520000000     0.395140000000     0.594490000000     0.20287    
H63      H      0.782570000000     0.386050000000     0.460000000000     0.196544   
H64      H      0.926490000000     0.520650000000     0.337790000000     0.201736   
H65      H      0.459110000000     0.919930000000     0.900320000000     0.190776   
H66      H      0.428070000000     0.907660000000     0.037200000000     0.192948   
H67      H      0.575370000000     0.038550000000     0.987250000000     0.198576   
H68      H      0.417420000000     0.027740000000     0.943790000000     0.195927   
H69      H      0.429060000000     0.842600000000     0.034630000000     0.131759   
H70      H      0.522760000000     0.897110000000     0.055090000000     0.203397   
H71      H      0.554290000000     0.043960000000     0.067680000000     0.134993   
H72      H      0.580210000000     0.104780000000     0.017250000000     0.188165   
H73      H      0.503680000000     0.098840000000     0.898580000000     0.140717   
H74      H      0.393740000000     0.033350000000     0.874520000000     0.196558   
H75      H      0.366210000000     0.899650000000     0.874050000000     0.132651   
H76      H      0.383610000000     0.844260000000     0.906600000000     0.186755   
H77      H      0.563100000000     0.136830000000     0.997410000000     0.20445    
H78      H      0.438630000000     0.046300000000     0.853470000000     0.199405   
H79      H      0.361860000000     0.811320000000     0.941180000000     0.204052   
H80      H      0.519130000000     0.915240000000     0.091100000000     0.201224   
H81      H      0.381430000000     0.942960000000     0.409130000000     0.197017   
H82      H      0.435100000000     0.967530000000     0.546620000000     0.19113    
H83      H      0.513620000000     0.910190000000     0.472710000000     0.200551   
H84      H      0.545150000000     0.065500000000     0.440920000000     0.197257   
H85      H      0.348560000000     0.904450000000     0.546280000000     0.12547    
H86      H      0.402730000000     0.876310000000     0.574190000000     0.188249   
H87      H      0.563130000000     0.939450000000     0.552710000000     0.142435   
H88      H      0.606910000000     0.952280000000     0.478870000000     0.199137   
H89      H      0.587900000000     0.041230000000     0.388830000000     0.130688   
H90      H      0.539420000000     0.076590000000     0.366350000000     0.187325   
H91      H      0.392630000000     0.039350000000     0.404910000000     0.140705   
H92      H      0.308350000000     0.937500000000     0.431550000000     0.195921   
H93      H      0.626140000000     0.992410000000     0.502380000000     0.200777   
H94      H      0.494920000000     0.070620000000     0.341220000000     0.203805   
H95      H      0.327650000000     0.983290000000     0.446290000000     0.199672   
H96      H      0.446300000000     0.874230000000     0.594730000000     0.202458   
H97      H      0.394070000000     0.455480000000     0.021370000000     0.190915   
H98      H      0.417640000000     0.446110000000     0.886030000000     0.196223   
H99      H      0.545000000000     0.571590000000     0.955170000000     0.199054   
H100     H      0.520080000000     0.418280000000     0.996670000000     0.202185   
H101     H      0.348990000000     0.479810000000     0.893020000000     0.142526   
H102     H      0.422660000000     0.547170000000     0.861040000000     0.199325   
H103     H      0.575210000000     0.577380000000     0.887320000000     0.130614   
H104     H      0.647790000000     0.563420000000     0.955210000000     0.194093   
H105     H      0.590940000000     0.488580000000     0.049380000000     0.138602   
H106     H      0.521130000000     0.407010000000     0.069030000000     0.196469   
H107     H      0.361960000000     0.361190000000     0.032390000000     0.137536   
H108     H      0.283290000000     0.393820000000     0.959550000000     0.203276   
H109     H      0.657020000000     0.541400000000     0.993030000000     0.201316   
H110     H      0.481750000000     0.394940000000     0.096230000000     0.203057   
H111     H      0.308550000000     0.391520000000     0.998380000000     0.189612   
H112     H      0.426890000000     0.514110000000     0.838950000000     0.198713   
H113     H      0.435140000000     0.434280000000     0.544860000000     0.202759   
H114     H      0.391460000000     0.439260000000     0.404480000000     0.189441   
H115     H      0.517200000000     0.580050000000     0.459580000000     0.196066   
H116     H      0.555600000000     0.457620000000     0.456360000000     0.200658   
H117     H      0.331550000000     0.445370000000     0.437240000000     0.135786   
H118     H      0.360370000000     0.523750000000     0.404460000000     0.200263   
H119     H      0.514990000000     0.594560000000     0.385160000000     0.130147   
H120     H      0.609260000000     0.612210000000     0.407470000000     0.192574   
H121     H      0.646520000000     0.551760000000     0.485990000000     0.140282   
H122     H      0.595840000000     0.444760000000     0.518650000000     0.200528   
H123     H      0.438750000000     0.358780000000     0.545830000000     0.127604   
H124     H      0.305900000000     0.350560000000     0.509240000000     0.205403   
H125     H      0.647740000000     0.610700000000     0.436400000000     0.196338   
H126     H      0.589010000000     0.454920000000     0.557610000000     0.204903   
H127     H      0.347640000000     0.343310000000     0.526790000000     0.191515   
H128     H      0.361600000000     0.496190000000     0.374520000000     0.195442   
H129     H      0.559580000000     0.527660000000     0.746160000000     0.0471656  
H130     H      0.551570000000     0.525440000000     0.807980000000     0.0375912  
H131     H      0.461030000000     0.396400000000     0.809920000000     0.0321483  
H132     H      0.468440000000     0.398830000000     0.747350000000     0.0461718  
H133     H      0.517680000000     0.412490000000     0.699330000000     0.0462426  
H134     H      0.513380000000     0.417560000000     0.635560000000     0.0351568  
H135     H      0.504260000000     0.527630000000     0.633840000000     0.0361101  
H136     H      0.507830000000     0.522080000000     0.696940000000     0.0468292  
H137     H      0.479060000000     0.453980000000     0.199400000000     0.0467051  
H138     H      0.484900000000     0.453720000000     0.137860000000     0.0283064  
H139     H      0.429260000000     0.534210000000     0.113960000000     0.0325578  
H140     H      0.422340000000     0.533680000000     0.176520000000     0.0461501  
H141     H      0.464650000000     0.553930000000     0.233230000000     0.0466025  
H142     H      0.463190000000     0.549190000000     0.296760000000     0.0356617  
H143     H      0.419380000000     0.420390000000     0.300820000000     0.0332494  
H144     H      0.419510000000     0.424850000000     0.237770000000     0.0463408  
H145     H      0.354470000000     0.702910000000     0.454620000000     0.0461774  
H146     H      0.366360000000     0.772020000000     0.453410000000     0.0381642  
H147     H      0.461680000000     0.795150000000     0.540500000000     0.0322026  
H148     H      0.450830000000     0.726530000000     0.541070000000     0.0462558  
H149     H      0.405780000000     0.684430000000     0.435680000000     0.0473407  
H150     H      0.422260000000     0.631000000000     0.427070000000     0.0336667  
H151     H      0.422790000000     0.600010000000     0.538440000000     0.0387329  
H152     H      0.405330000000     0.652950000000     0.546920000000     0.0467928  
H153     H      0.477810000000     0.216000000000     0.397110000000     0.0467443  
H154     H      0.467330000000     0.147250000000     0.397880000000     0.0303706  
H155     H      0.564860000000     0.172330000000     0.483510000000     0.0325089  
H156     H      0.576540000000     0.241150000000     0.481850000000     0.0451709  
H157     H      0.527190000000     0.262210000000     0.500530000000     0.0473131  
H158     H      0.518780000000     0.320670000000     0.507870000000     0.036129   
H159     H      0.517870000000     0.348310000000     0.395990000000     0.0373224  
H160     H      0.527020000000     0.290030000000     0.388840000000     0.0460956  
H161     H      0.530310000000     0.065140000000     0.686510000000     0.0458842  
H162     H      0.524000000000     0.061210000000     0.623530000000     0.0358067  
H163     H      0.529790000000     0.948850000000     0.639940000000     0.0314932  
H164     H      0.535320000000     0.952540000000     0.702600000000     0.0452187  
H165     H      0.479510000000     0.026000000000     0.732210000000     0.0464001  
H166     H      0.468630000000     0.018490000000     0.793930000000     0.0314736  
H167     H      0.567030000000     0.980150000000     0.816360000000     0.0343254  
H168     H      0.578360000000     0.988290000000     0.753880000000     0.0463796  
H169     H      0.363210000000     0.958410000000     0.181410000000     0.0459871  
H170     H      0.374860000000     0.967580000000     0.118870000000     0.0348108  
H171     H      0.476730000000     0.933570000000     0.140990000000     0.0279543  
H172     H      0.465440000000     0.924950000000     0.202660000000     0.0457719  
H173     H      0.414180000000     0.883400000000     0.247790000000     0.0457339  
H174     H      0.420080000000     0.886320000000     0.310940000000     0.036085   
H175     H      0.410770000000     0.996950000000     0.295930000000     0.0328791  
H176     H      0.405600000000     0.994270000000     0.233150000000     0.0453495  
H177     H      0.467130000000     0.760670000000     0.880620000000     0.0455446  
H178     H      0.463740000000     0.823130000000     0.883840000000     0.0236337  
H179     H      0.580270000000     0.868280000000     0.952640000000     0.0310788  
H180     H      0.583320000000     0.805240000000     0.950050000000     0.0461698  
H181     H      0.512040000000     0.726760000000     0.865080000000     0.04539    
H182     H      0.498160000000     0.656110000000     0.874280000000     0.0339197  
H183     H      0.510910000000     0.664340000000     0.985620000000     0.0376693  
H184     H      0.526160000000     0.734480000000     0.976300000000     0.0474202  
H185     H      0.422210000000     0.219160000000     0.066690000000     0.0452933  
H186     H      0.434570000000     0.289330000000     0.056420000000     0.0336896  
H187     H      0.439420000000     0.284740000000     0.946110000000     0.0381939  
H188     H      0.425310000000     0.214940000000     0.956420000000     0.047364   
H189     H      0.360960000000     0.142840000000     0.981350000000     0.0451443  
H190     H      0.363600000000     0.079320000000     0.980540000000     0.026572   
H191     H      0.476950000000     0.123790000000     0.052680000000     0.0273454  
H192     H      0.473610000000     0.186660000000     0.054330000000     0.0455253  
H193     H      0.691880000000     0.226860000000     0.476960000000     0.0440253  
H194     H      0.627460000000     0.164290000000     0.496840000000     0.0323014  
H195     H      0.692180000000     0.095620000000     0.482590000000     0.0343577  
H196     H      0.755910000000     0.157700000000     0.462080000000     0.0466844  
H197     H      0.817510000000     0.223170000000     0.473790000000     0.0469092  
H198     H      0.876550000000     0.288500000000     0.451630000000     0.0372078  
H199     H      0.781140000000     0.319970000000     0.398900000000     0.0268108  
H200     H      0.721990000000     0.254500000000     0.420100000000     0.0447318  
H201     H      0.137620000000     0.729090000000     0.478830000000     0.0456813  
H202     H      0.071600000000     0.668600000000     0.498690000000     0.0380108  
H203     H      0.148500000000     0.608660000000     0.534050000000     0.0363606  
H204     H      0.213880000000     0.668240000000     0.512800000000     0.0451045  
H205     H      0.265130000000     0.735660000000     0.522690000000     0.0469744  
H206     H      0.329800000000     0.797530000000     0.503040000000     0.0295369  
H207     H      0.253630000000     0.817140000000     0.415200000000     0.0217542  
H208     H      0.188370000000     0.753960000000     0.433940000000     0.0439517  
H209     H      0.782180000000     0.571290000000     0.415040000000     0.0449425  
H210     H      0.849860000000     0.572200000000     0.439710000000     0.0273784  
H211     H      0.775720000000     0.470010000000     0.512050000000     0.0213706  
H212     H      0.708140000000     0.470130000000     0.488930000000     0.043757   
H213     H      0.718000000000     0.577440000000     0.417330000000     0.0412978  
H214     H      0.647500000000     0.565890000000     0.388920000000     0.0249135  
H215     H      0.596180000000     0.436100000000     0.409240000000     0.0312576  
H216     H      0.666870000000     0.447410000000     0.435800000000     0.0436054  
H217     H      0.232700000000     0.516990000000     0.447660000000     0.0451317  
H218     H      0.164270000000     0.514530000000     0.427630000000     0.0262454  
H219     H      0.093700000000     0.387650000000     0.464120000000     0.0295074  
H220     H      0.163430000000     0.388470000000     0.481680000000     0.0457898  
H221     H      0.216200000000     0.408710000000     0.526050000000     0.0446638  
H222     H      0.285400000000     0.416000000000     0.554060000000     0.0264451  
H223     H      0.356730000000     0.515980000000     0.479080000000     0.0327295  
H224     H      0.289120000000     0.506390000000     0.448750000000     0.0404423  
H225     H      0.947430000000     0.546100000000     0.736880000000     0.0467192  
H226     H      0.945840000000     0.536730000000     0.800210000000     0.0356049  
H227     H      0.956500000000     0.427660000000     0.800000000000     0.035694   
H228     H      0.956980000000     0.436610000000     0.736840000000     0.0466345  
H229     H      0.008830000000     0.483710000000     0.695130000000     0.0480859  
H230     H      0.009480000000     0.485830000000     0.632330000000     0.0321792  
H231     H      0.907800000000     0.520260000000     0.618740000000     0.0292058  
H232     H      0.906040000000     0.516940000000     0.682390000000     0.0462513  
H233     H      0.019750000000     0.418570000000     0.202960000000     0.0462603  
H234     H      0.012210000000     0.420030000000     0.139430000000     0.032713   
H235     H      0.987350000000     0.521790000000     0.134750000000     0.0352395  
H236     H      0.994300000000     0.519790000000     0.197840000000     0.0467422  
H237     H      0.051670000000     0.533430000000     0.244920000000     0.0468595  
H238     H      0.047320000000     0.533640000000     0.307030000000     0.0363237  
H239     H      0.967610000000     0.402660000000     0.315200000000     0.0325814  
H240     H      0.971490000000     0.402590000000     0.252480000000     0.045734   
H241     H      0.755020000000     0.146960000000     0.906010000000     0.0447452  
H242     H      0.683530000000     0.086740000000     0.916520000000     0.0343064  
H243     H      0.622710000000     0.163220000000     0.904670000000     0.033775   
H244     H      0.693540000000     0.222880000000     0.894520000000     0.046086   
H245     H      0.754050000000     0.260160000000     0.856180000000     0.0462798  
H246     H      0.819280000000     0.326390000000     0.863540000000     0.0249565  
H247     H      0.870680000000     0.271730000000     0.946390000000     0.0267282  
H248     H      0.805450000000     0.205550000000     0.939610000000     0.0450385  
H249     H      0.134160000000     0.738750000000     0.993880000000     0.0450897  
H250     H      0.069550000000     0.671790000000     0.988450000000     0.0233046  
H251     H      0.123450000000     0.620370000000     0.072140000000     0.0248158  
H252     H      0.188030000000     0.687320000000     0.078090000000     0.0451475  
H253     H      0.184760000000     0.798800000000     0.026720000000     0.044797   
H254     H      0.255980000000     0.859480000000     0.015890000000     0.0342304  
H255     H      0.317950000000     0.783990000000     0.027900000000     0.0297346  
H256     H      0.247560000000     0.724000000000     0.038540000000     0.0444988  
H257     H      0.767520000000     0.519600000000     0.009280000000     0.0440999  
H258     H      0.837990000000     0.522160000000     0.025810000000     0.0349174  
H259     H      0.772660000000     0.391270000000     0.042100000000     0.0240751  
H260     H      0.702940000000     0.388160000000     0.023580000000     0.0448669  
H261     H      0.724470000000     0.503650000000     0.957530000000     0.0451565  
H262     H      0.659310000000     0.499390000000     0.924640000000     0.0276527  
H263     H      0.577470000000     0.391560000000     0.988940000000     0.0259599  
H264     H      0.642420000000     0.396850000000     0.023470000000     0.0446236  
H265     H      0.179570000000     0.452890000000     0.947750000000     0.0444984  
H266     H      0.108190000000     0.439700000000     0.921310000000     0.0317944  
H267     H      0.154980000000     0.569040000000     0.903050000000     0.0267042  
H268     H      0.226570000000     0.582300000000     0.930640000000     0.0434692  
H269     H      0.223020000000     0.477860000000     0.001170000000     0.0440359  
H270     H      0.291540000000     0.477670000000     0.020820000000     0.0220874  
H271     H      0.360250000000     0.576180000000     0.943820000000     0.0275634  
H272     H      0.291500000000     0.575790000000     0.923170000000     0.0448872  
H273     H      0.690110000000     0.791560000000     0.514020000000     0.0447459  
H274     H      0.757210000000     0.856870000000     0.505440000000     0.0305323  
H275     H      0.832580000000     0.806660000000     0.566390000000     0.0273676  
H276     H      0.765710000000     0.742330000000     0.576750000000     0.0456443  
H277     H      0.725190000000     0.691930000000     0.538170000000     0.045889   
H278     H      0.665000000000     0.625210000000     0.527780000000     0.0242238  
H279     H      0.571960000000     0.666740000000     0.536310000000     0.0310832  
H280     H      0.633170000000     0.734720000000     0.547720000000     0.0454379  
H281     H      0.254880000000     0.150550000000     0.416660000000     0.0455138  
H282     H      0.182740000000     0.090330000000     0.424550000000     0.0345197  
H283     H      0.120560000000     0.164630000000     0.394740000000     0.0279701  
H284     H      0.192310000000     0.224420000000     0.386430000000     0.0467787  
H285     H      0.262610000000     0.258440000000     0.352690000000     0.0455762  
H286     H      0.326410000000     0.325570000000     0.361720000000     0.0258009  
H287     H      0.355350000000     0.278780000000     0.462590000000     0.0286727  
H288     H      0.292550000000     0.211840000000     0.453500000000     0.0469229  
H289     H      0.656240000000     0.944870000000     0.353580000000     0.0474358  
H290     H      0.586590000000     0.945030000000     0.348870000000     0.0290959  
H291     H      0.540660000000     0.852510000000     0.434450000000     0.0260178  
H292     H      0.610500000000     0.851980000000     0.439310000000     0.0443171  
H293     H      0.678930000000     0.907830000000     0.463260000000     0.0436301  
H294     H      0.756380000000     0.932120000000     0.479930000000     0.0363005  
H295     H      0.782600000000     0.941020000000     0.371750000000     0.0333389  
H296     H      0.705090000000     0.916020000000     0.355350000000     0.0448491  
H297     H      0.285680000000     0.008600000000     0.579220000000     0.0476802  
H298     H      0.352940000000     0.004190000000     0.581670000000     0.027065   
H299     H      0.400080000000     0.096290000000     0.495890000000     0.029523   
H300     H      0.332630000000     0.101010000000     0.493260000000     0.0446907  
H301     H      0.241310000000     0.042670000000     0.579870000000     0.0453314  
H302     H      0.163820000000     0.021570000000     0.565590000000     0.0331451  
H303     H      0.184010000000     0.026330000000     0.456620000000     0.0358545  
H304     H      0.261080000000     0.047150000000     0.471010000000     0.0444916  
H305     H      0.945850000000     0.713850000000     0.447470000000     0.048481   
H306     H      0.932970000000     0.644000000000     0.456990000000     0.0347639  
H307     H      0.045110000000     0.677030000000     0.398010000000     0.0316515  
H308     H      0.058680000000     0.747790000000     0.389170000000     0.0459953  
H309     H      0.076140000000     0.806340000000     0.436680000000     0.04595    
H310     H      0.079000000000     0.871790000000     0.442060000000     0.0282117  
H311     H      0.948210000000     0.825290000000     0.393640000000     0.0310082  
H312     H      0.945280000000     0.760500000000     0.388590000000     0.0471534  
H313     H      0.945440000000     0.231580000000     0.457940000000     0.0475329  
H314     H      0.962430000000     0.302120000000     0.450380000000     0.0387457  
H315     H      0.931080000000     0.294970000000     0.556860000000     0.0323619  
H316     H      0.915310000000     0.223610000000     0.564510000000     0.0455956  
H317     H      0.965960000000     0.187040000000     0.559240000000     0.0463562  
H318     H      0.965570000000     0.122640000000     0.555480000000     0.0231742  
H319     H      0.871720000000     0.096390000000     0.467560000000     0.028125   
H320     H      0.872570000000     0.161030000000     0.470840000000     0.0456783  
H321     H      0.866570000000     0.971350000000     0.682510000000     0.0463207  
H322     H      0.879040000000     0.981270000000     0.620060000000     0.0340226  
H323     H      0.975900000000     0.940930000000     0.641870000000     0.03193    
H324     H      0.963670000000     0.931400000000     0.703480000000     0.0456337  
H325     H      0.908470000000     0.889540000000     0.746870000000     0.0464375  
H326     H      0.915110000000     0.890940000000     0.810080000000     0.0358244  
H327     H      0.918070000000     0.007370000000     0.798130000000     0.0355109  
H328     H      0.912010000000     0.005990000000     0.735090000000     0.0467277  
H329     H      0.947990000000     0.937210000000     0.240750000000     0.0459161  
H330     H      0.939830000000     0.933170000000     0.302970000000     0.0301341  
H331     H      0.074540000000     0.027660000000     0.316090000000     0.0317041  
H332     H      0.082440000000     0.032160000000     0.253020000000     0.0467174  
H333     H      0.041090000000     0.051670000000     0.194670000000     0.0465171  
H334     H      0.036470000000     0.052080000000     0.130880000000     0.0352914  
H335     H      0.993000000000     0.922860000000     0.141400000000     0.0312007  
H336     H      0.997320000000     0.922880000000     0.204210000000     0.045499   
H337     H      0.639510000000     0.731490000000     0.990680000000     0.0457072  
H338     H      0.577790000000     0.665740000000     0.008220000000     0.0340425  
H339     H      0.665480000000     0.615320000000     0.031310000000     0.0290078  
H340     H      0.725560000000     0.678320000000     0.010710000000     0.0436879  
H341     H      0.777190000000     0.741560000000     0.010980000000     0.0441303  
H342     H      0.835920000000     0.800220000000     0.982600000000     0.021114   
H343     H      0.742990000000     0.827440000000     0.919570000000     0.0266756  
H344     H      0.682450000000     0.765180000000     0.945050000000     0.0462881  
H345     H      0.213120000000     0.254330000000     0.929880000000     0.0457968  
H346     H      0.270430000000     0.319640000000     0.906440000000     0.0296602  
H347     H      0.368070000000     0.283930000000     0.943400000000     0.0375469  
H348     H      0.311630000000     0.219610000000     0.968800000000     0.046745   
H349     H      0.250890000000     0.156390000000     0.962090000000     0.0462791  
H350     H      0.190290000000     0.093770000000     0.984770000000     0.0329789  
H351     H      0.125140000000     0.159360000000     0.006680000000     0.0335895  
H352     H      0.187270000000     0.223030000000     0.985500000000     0.0451121  
H353     H      0.779970000000     0.991090000000     0.083710000000     0.0462982  
H354     H      0.849350000000     0.990440000000     0.087990000000     0.0289408  
H355     H      0.898680000000     0.088910000000     0.007420000000     0.0236854  
H356     H      0.829200000000     0.090090000000     0.003110000000     0.0435606  
H357     H      0.731420000000     0.019410000000     0.084490000000     0.0460931  
H358     H      0.654580000000     0.997480000000     0.067210000000     0.0366942  
H359     H      0.684370000000     0.017180000000     0.958780000000     0.0361499  
H360     H      0.760980000000     0.038270000000     0.976220000000     0.0431017  
H361     H      0.179360000000     0.900210000000     0.961910000000     0.0437655  
H362     H      0.256570000000     0.923310000000     0.977990000000     0.0353845  
H363     H      0.282710000000     0.937600000000     0.869150000000     0.0350632  
H364     H      0.205130000000     0.913940000000     0.853190000000     0.0453926  
H365     H      0.157140000000     0.943550000000     0.854370000000     0.0464505  
H366     H      0.088400000000     0.945220000000     0.851900000000     0.02484    
H367     H      0.041510000000     0.848790000000     0.934330000000     0.0287786  
H368     H      0.110370000000     0.846640000000     0.936880000000     0.0443671  
H369     H      0.944320000000     0.718270000000     0.032010000000     0.0462539  
H370     H      0.959870000000     0.788320000000     0.032320000000     0.0299988  
H371     H      0.870980000000     0.772970000000     0.941650000000     0.0372381  
H372     H      0.854220000000     0.702530000000     0.942060000000     0.0459249  
H373     H      0.892650000000     0.646590000000     0.038030000000     0.0453725  
H374     H      0.904090000000     0.589370000000     0.032590000000     0.0359285  
H375     H      0.908070000000     0.616740000000     0.920740000000     0.0353807  
H376     H      0.898380000000     0.674950000000     0.926440000000     0.0471145  
H377     H      0.051750000000     0.296770000000     0.902630000000     0.0460711  
H378     H      0.040670000000     0.354560000000     0.907570000000     0.0363003  
H379     H      0.016900000000     0.317340000000     0.016820000000     0.0371783  
H380     H      0.026820000000     0.259240000000     0.011660000000     0.046916   
H381     H      0.076420000000     0.235740000000     0.001830000000     0.0455033  
H382     H      0.062410000000     0.166450000000     0.002000000000     0.0348084  
H383     H      0.990390000000     0.155210000000     0.902200000000     0.0308477  
H384     H      0.002280000000     0.224130000000     0.903050000000     0.0469369  
O1       O      0.108200000000     0.056410000000     0.978750000000    -0.37261    
O2       O      0.077410000000     0.079410000000     0.012790000000    -0.353537   
O3       O      0.941370000000     0.988710000000     0.857990000000    -0.368173   
O4       O      0.925780000000     0.922370000000     0.866940000000    -0.367168   
O5       O      0.997460000000     0.092380000000     0.927290000000    -0.36951    
O6       O      0.014150000000     0.095600000000     0.985880000000    -0.362854   
O7       O      0.060770000000     0.947160000000     0.921540000000    -0.375025   
O8       O      0.993410000000     0.896140000000     0.905020000000    -0.356166   
O9       O      0.110550000000     0.031770000000     0.914680000000    -0.331964   
O10      O      0.106720000000     0.974250000000     0.992600000000    -0.529406   
O11      O      0.021770000000     0.066340000000     0.869510000000    -0.529019   
O12      O      0.914230000000     0.041910000000     0.886280000000    -0.343319   
O13      O      0.026730000000     0.036430000000     0.954770000000    -0.495192   
O14      O      0.999480000000     0.978780000000     0.913580000000    -0.635935   
O15      O      0.946600000000     0.849370000000     0.010950000000    -0.371752   
O16      O      0.927700000000     0.845420000000     0.952640000000    -0.360252   
O17      O      0.879780000000     0.989470000000     0.020730000000    -0.372718   
O18      O      0.946480000000     0.043440000000     0.034000000000    -0.357573   
O19      O      0.830540000000     0.885260000000     0.957420000000    -0.370321   
O20      O      0.864290000000     0.861240000000     0.927380000000    -0.35585    
O21      O      0.993370000000     0.950730000000     0.081010000000    -0.368579   
O22      O      0.012350000000     0.017890000000     0.072750000000    -0.3641     
O23      O      0.923190000000     0.871130000000     0.069280000000    -0.521647   
O24      O      0.032540000000     0.905380000000     0.050790000000    -0.352868   
O25      O      0.827730000000     0.906900000000     0.020950000000    -0.326957   
O26      O      0.838210000000     0.971600000000     0.945760000000    -0.530472   
O27      O      0.914760000000     0.904650000000     0.984470000000    -0.63749    
O28      O      0.941690000000     0.961940000000     0.024590000000    -0.496042   
O29      O      0.000550000000     0.925040000000     0.971790000000    -0.500733   
O30      O      0.940770000000     0.015750000000     0.966530000000    -0.630369   
O31      O      0.030660000000     0.985290000000     0.013520000000    -0.633132   
O32      O      0.910820000000     0.955920000000     0.924740000000    -0.497072   
O33      O      0.972580000000     0.872040000000     0.447270000000    -0.369325   
O34      O      0.037380000000     0.923290000000     0.427010000000    -0.358089   
O35      O      0.847460000000     0.956530000000     0.412950000000    -0.36574    
O36      O      0.836930000000     0.959820000000     0.469250000000    -0.355688   
O37      O      0.961260000000     0.972950000000     0.357920000000    -0.372848   
O38      O      0.031310000000     0.985940000000     0.374310000000    -0.360927   
O39      O      0.868480000000     0.862550000000     0.510960000000    -0.364525   
O40      O      0.846520000000     0.907700000000     0.521460000000    -0.352216   
O41      O      0.882720000000     0.834100000000     0.454270000000    -0.332142   
O42      O      0.955540000000     0.857440000000     0.526890000000    -0.531843   
O43      O      0.873610000000     0.918890000000     0.370180000000    -0.520019   
O44      O      0.916840000000     0.024770000000     0.367000000000    -0.346073   
O45      O      0.960950000000     0.935910000000     0.427130000000    -0.495758   
O46      O      0.897130000000     0.930360000000     0.458950000000    -0.633267   
O47      O      0.976390000000     0.974600000000     0.582200000000    -0.370169   
O48      O      0.910080000000     0.970980000000     0.565450000000    -0.359262   
O49      O      0.076970000000     0.097680000000     0.433840000000    -0.366137   
O50      O      0.095850000000     0.051830000000     0.419460000000    -0.353282   
O51      O      0.964210000000     0.088190000000     0.486430000000    -0.365797   
O52      O      0.902430000000     0.035590000000     0.510110000000    -0.358482   
O53      O      0.096730000000     0.006740000000     0.525430000000    -0.36026    
O54      O      0.104990000000     0.999330000000     0.469660000000    -0.360131   
O55      O      0.063880000000     0.043200000000     0.569230000000    -0.524918   
O56      O      0.034980000000     0.940090000000     0.572780000000    -0.351307   
O57      O      0.056250000000     0.122960000000     0.491410000000    -0.336491   
O58      O      0.993660000000     0.104580000000     0.411670000000    -0.531247   
O59      O      0.981210000000     0.023580000000     0.513330000000    -0.627193   
O60      O      0.045350000000     0.028990000000     0.480610000000    -0.495388   
O61      O      0.945750000000     0.938860000000     0.523410000000    -0.496365   
O62      O      0.997140000000     0.021570000000     0.416480000000    -0.629348   
O63      O      0.011820000000     0.943680000000     0.490990000000    -0.628716   
O64      O      0.930890000000     0.016020000000     0.448960000000    -0.491087   
O65      O      0.015800000000     0.382850000000     0.994730000000    -0.363408   
O66      O      0.003540000000     0.385410000000     0.935540000000    -0.361313   
O67      O      0.845640000000     0.428210000000     0.010310000000    -0.375518   
O68      O      0.889770000000     0.487730000000     0.035200000000    -0.349097   
O69      O      0.864770000000     0.353080000000     0.942240000000    -0.372096   
O70      O      0.917530000000     0.367640000000     0.904790000000    -0.355394   
O71      O      0.003120000000     0.448610000000     0.078640000000    -0.374247   
O72      O      0.979140000000     0.494970000000     0.077230000000    -0.373428   
O73      O      0.968780000000     0.367520000000     0.056780000000    -0.340353   
O74      O      0.075000000000     0.447880000000     0.042360000000    -0.527318   
O75      O      0.858480000000     0.352640000000     0.021060000000    -0.540304   
O76      O      0.812690000000     0.387580000000     0.949780000000    -0.348709   
O77      O      0.947430000000     0.400380000000     0.974570000000    -0.49821    
O78      O      0.938610000000     0.438390000000     0.023440000000    -0.631511   
O79      O      0.077380000000     0.591190000000     0.994200000000    -0.37537    
O80      O      0.024320000000     0.576900000000     0.031310000000    -0.35212    
O81      O      0.944820000000     0.500590000000     0.859110000000    -0.369633   
O82      O      0.964730000000     0.451530000000     0.859570000000    -0.365741   
O83      O      0.920090000000     0.556940000000     0.943520000000    -0.363106   
O84      O      0.936770000000     0.557320000000     0.002110000000    -0.36355    
O85      O      0.069490000000     0.522080000000     0.903680000000    -0.349957   
O86      O      0.049940000000     0.458090000000     0.898190000000    -0.349875   
O87      O      0.112060000000     0.598400000000     0.934500000000    -0.521386   
O88      O      0.122210000000     0.530580000000     0.987230000000    -0.364373   
O89      O      0.974540000000     0.579160000000     0.884700000000    -0.343805   
O90      O      0.868440000000     0.494980000000     0.892180000000    -0.527928   
O91      O      0.996030000000     0.543880000000     0.962620000000    -0.631481   
O92      O      0.003440000000     0.505670000000     0.914760000000    -0.474359   
O93      O      0.026940000000     0.502220000000     0.014870000000    -0.497038   
O94      O      0.915290000000     0.441990000000     0.922710000000    -0.631126   
O95      O      0.033700000000     0.463480000000     0.966380000000    -0.623113   
O96      O      0.909240000000     0.479640000000     0.971240000000    -0.492637   
O97      O      0.947720000000     0.363240000000     0.520640000000    -0.36057    
O98      O      0.967750000000     0.364990000000     0.466180000000    -0.35737    
O99      O      0.843670000000     0.479610000000     0.464670000000    -0.374669   
O100     O      0.890470000000     0.533930000000     0.495430000000    -0.361734   
O101     O      0.851550000000     0.375690000000     0.431110000000    -0.370288   
O102     O      0.907660000000     0.364600000000     0.421310000000    -0.348599   
O103     O      0.956000000000     0.465190000000     0.576930000000    -0.363813   
O104     O      0.953050000000     0.524050000000     0.560870000000    -0.363854   
O105     O      0.883460000000     0.381180000000     0.554590000000    -0.355432   
O106     O      0.995040000000     0.414580000000     0.575250000000    -0.522913   
O107     O      0.809510000000     0.396910000000     0.474480000000    -0.521386   
O108     O      0.840890000000     0.447650000000     0.393100000000    -0.357567   
O109     O      0.918630000000     0.409910000000     0.473030000000    -0.500071   
O110     O      0.910400000000     0.461830000000     0.505370000000    -0.626325   
O111     O      0.066730000000     0.561900000000     0.529790000000    -0.354449   
O112     O      0.026740000000     0.593160000000     0.515950000000    -0.353242   
O113     O      0.999530000000     0.502940000000     0.358680000000    -0.37132    
O114     O      0.987300000000     0.438070000000     0.373520000000    -0.370324   
O115     O      0.988460000000     0.596710000000     0.411810000000    -0.360142   
O116     O      0.968550000000     0.595960000000     0.466270000000    -0.350019   
O117     O      0.093250000000     0.486800000000     0.462880000000    -0.376771   
O118     O      0.046640000000     0.429850000000     0.435250000000    -0.356958   
O119     O      0.116580000000     0.579430000000     0.457480000000    -0.534026   
O120     O      0.113050000000     0.517430000000     0.527110000000    -0.337566   
O121     O      0.043360000000     0.584930000000     0.372560000000    -0.337569   
O122     O      0.929200000000     0.531300000000     0.359850000000    -0.527737   
O123     O      0.017170000000     0.551760000000     0.459510000000    -0.631101   
O124     O      0.024620000000     0.498760000000     0.428480000000    -0.494627   
O125     O      0.001120000000     0.500220000000     0.522600000000    -0.478996   
O126     O      0.933350000000     0.459270000000     0.409680000000    -0.625221   
O127     O      0.010010000000     0.447730000000     0.491390000000    -0.629329   
O128     O      0.926130000000     0.513700000000     0.442030000000    -0.495825   
O129     O      0.348420000000     0.952310000000     0.910360000000    -0.366114   
O130     O      0.336800000000     0.953340000000     0.966920000000    -0.356721   
O131     O      0.474650000000     0.866270000000     0.942300000000    -0.363484   
O132     O      0.539470000000     0.919550000000     0.923840000000    -0.35662    
O133     O      0.361330000000     0.854020000000     0.995890000000    -0.37009    
O134     O      0.343330000000     0.898400000000     0.014810000000    -0.350072   
O135     O      0.469660000000     0.987370000000     0.854350000000    -0.365787   
O136     O      0.534500000000     0.987950000000     0.871050000000    -0.358839   
O137     O      0.381340000000     0.926260000000     0.860340000000    -0.34061    
O138     O      0.417680000000     0.028800000000     0.870550000000    -0.531036   
O139     O      0.382420000000     0.838150000000     0.931570000000    -0.522509   
O140     O      0.439170000000     0.839430000000     0.012920000000    -0.345901   
O141     O      0.396500000000     0.927730000000     0.952760000000    -0.493383   
O142     O      0.461450000000     0.934750000000     0.919710000000    -0.627232   
O143     O      0.578350000000     0.093040000000     0.936080000000    -0.365847   
O144     O      0.597590000000     0.048440000000     0.919410000000    -0.351613   
O145     O      0.473810000000     0.962990000000     0.080550000000    -0.372837   
O146     O      0.407810000000     0.960050000000     0.063950000000    -0.359958   
O147     O      0.591030000000     0.987280000000     0.025400000000    -0.362767   
O148     O      0.603950000000     0.990460000000     0.968330000000    -0.356405   
O149     O      0.468160000000     0.080560000000     0.994140000000    -0.364151   
O150     O      0.402280000000     0.027470000000     0.010880000000    -0.35827    
O151     O      0.560950000000     0.110200000000     0.000290000000    -0.52308    
O152     O      0.498640000000     0.105380000000     0.921030000000    -0.350297   
O153     O      0.563490000000     0.022810000000     0.071480000000    -0.341831   
O154     O      0.520030000000     0.917240000000     0.066060000000    -0.530775   
O155     O      0.544950000000     0.019480000000     0.981970000000    -0.631729   
O156     O      0.480070000000     0.012190000000     0.014710000000    -0.495289   
O157     O      0.500320000000     0.020040000000     0.917230000000    -0.495565   
O158     O      0.441100000000     0.926450000000     0.017240000000    -0.629094   
O159     O      0.433380000000     0.012860000000     0.949960000000    -0.625923   
O160     O      0.507660000000     0.933720000000     0.984520000000    -0.492982   
O161     O      0.486090000000     0.089400000000     0.420180000000    -0.371168   
O162     O      0.510790000000     0.098590000000     0.477170000000    -0.3647     
O163     O      0.335790000000     0.878470000000     0.470920000000    -0.364674   
O164     O      0.363810000000     0.858210000000     0.431800000000    -0.354565   
O165     O      0.380740000000     0.997030000000     0.515070000000    -0.372694   
O166     O      0.448070000000     0.051030000000     0.527030000000    -0.353234   
O167     O      0.438100000000     0.983120000000     0.355830000000    -0.36651    
O168     O      0.423700000000     0.917330000000     0.367770000000    -0.364374   
O169     O      0.399430000000     0.028970000000     0.385530000000    -0.351951   
O170     O      0.507870000000     0.064380000000     0.362830000000    -0.521901   
O171     O      0.329150000000     0.958510000000     0.446090000000    -0.531063   
O172     O      0.332960000000     0.914390000000     0.528240000000    -0.330458   
O173     O      0.437900000000     0.015650000000     0.464220000000    -0.496873   
O174     O      0.406400000000     0.952510000000     0.425730000000    -0.632558   
O175     O      0.558330000000     0.951890000000     0.414340000000    -0.372954   
O176     O      0.492070000000     0.895080000000     0.406860000000    -0.36013    
O177     O      0.504350000000     0.963090000000     0.579460000000    -0.372975   
O178     O      0.516910000000     0.028310000000     0.567430000000    -0.364203   
O179     O      0.446020000000     0.854360000000     0.516630000000    -0.361675   
O180     O      0.426410000000     0.845960000000     0.458760000000    -0.358341   
O181     O      0.609450000000     0.058760000000     0.474700000000    -0.37211    
O182     O      0.578520000000     0.084810000000     0.505410000000    -0.354373   
O183     O      0.606340000000     0.976260000000     0.484220000000    -0.528101   
O184     O      0.606360000000     0.037290000000     0.408540000000    -0.332417   
O185     O      0.538070000000     0.912410000000     0.548000000000    -0.356      
O186     O      0.433440000000     0.883780000000     0.574970000000    -0.521242   
O187     O      0.501880000000     0.928660000000     0.471760000000    -0.630973   
O188     O      0.533140000000     0.992150000000     0.509550000000    -0.50285    
O189     O      0.494880000000     0.977440000000     0.411120000000    -0.500478   
O190     O      0.444660000000     0.967810000000     0.524080000000    -0.631603   
O191     O      0.523280000000     0.038220000000     0.448300000000    -0.633595   
O192     O      0.417090000000     0.907120000000     0.486640000000    -0.495516   
O193     O      0.442950000000     0.353950000000     0.018210000000    -0.356673   
O194     O      0.455350000000     0.352230000000     0.961990000000    -0.351782   
O195     O      0.351730000000     0.482860000000     0.967940000000    -0.375524   
O196     O      0.403640000000     0.536020000000     0.997700000000    -0.356292   
O197     O      0.347080000000     0.374180000000     0.931850000000    -0.36509    
O198     O      0.398140000000     0.358950000000     0.916840000000    -0.35528    
O199     O      0.454830000000     0.456200000000     0.076290000000    -0.367944   
O200     O      0.461120000000     0.519030000000     0.061160000000    -0.365732   
O201     O      0.382060000000     0.374500000000     0.052410000000    -0.352593   
O202     O      0.493290000000     0.404650000000     0.073360000000    -0.524084   
O203     O      0.310010000000     0.401000000000     0.973960000000    -0.517583   
O204     O      0.344300000000     0.451720000000     0.893840000000    -0.35858    
O205     O      0.415420000000     0.404420000000     0.971690000000    -0.499505   
O206     O      0.415280000000     0.459500000000     0.005230000000    -0.625719   
O207     O      0.590400000000     0.569090000000     0.006120000000    -0.380354   
O208     O      0.539780000000     0.586100000000     0.018500000000    -0.355145   
O209     O      0.499580000000     0.495640000000     0.857280000000    -0.365555   
O210     O      0.482500000000     0.429120000000     0.870500000000    -0.367828   
O211     O      0.495250000000     0.592590000000     0.911960000000    -0.358869   
O212     O      0.484940000000     0.594740000000     0.968630000000    -0.353304   
O213     O      0.575580000000     0.480690000000     0.933450000000    -0.345719   
O214     O      0.537000000000     0.413830000000     0.935970000000    -0.352781   
O215     O      0.636750000000     0.544370000000     0.975430000000    -0.519901   
O216     O      0.588810000000     0.474530000000     0.028780000000    -0.369783   
O217     O      0.549780000000     0.577800000000     0.873680000000    -0.335916   
O218     O      0.435210000000     0.529870000000     0.858890000000    -0.529947   
O219     O      0.523890000000     0.543100000000     0.958680000000    -0.629478   
O220     O      0.522750000000     0.487510000000     0.925880000000    -0.464392   
O221     O      0.506220000000     0.491370000000     0.021890000000    -0.493437   
O222     O      0.432200000000     0.454950000000     0.908440000000    -0.626272   
O223     O      0.506020000000     0.434460000000     0.988410000000    -0.626849   
O224     O      0.432900000000     0.512330000000     0.943020000000    -0.500013   
O225     O      0.511790000000     0.383150000000     0.487340000000    -0.367324   
O226     O      0.494420000000     0.385980000000     0.428890000000    -0.363772   
O227     O      0.369240000000     0.435520000000     0.530610000000    -0.372479   
O228     O      0.403240000000     0.502830000000     0.531350000000    -0.341687   
O229     O      0.365920000000     0.358510000000     0.449480000000    -0.363045   
O230     O      0.409110000000     0.372370000000     0.404340000000    -0.358827   
O231     O      0.510150000000     0.451230000000     0.574920000000    -0.368906   
O232     O      0.490680000000     0.500480000000     0.575810000000    -0.373033   
O233     O      0.470630000000     0.370310000000     0.551850000000    -0.33885    
O234     O      0.577640000000     0.447010000000     0.534330000000    -0.525618   
O235     O      0.336910000000     0.359030000000     0.511350000000    -0.514686   
O236     O      0.321390000000     0.418110000000     0.449740000000    -0.355098   
O237     O      0.445220000000     0.405600000000     0.472460000000    -0.494579   
O238     O      0.445790000000     0.446040000000     0.522010000000    -0.626404   
O239     O      0.590530000000     0.591000000000     0.492040000000    -0.377972   
O240     O      0.541150000000     0.582630000000     0.530320000000    -0.35578    
O241     O      0.444400000000     0.509060000000     0.357900000000    -0.366321   
O242     O      0.454400000000     0.453960000000     0.357480000000    -0.366442   
O243     O      0.433300000000     0.569750000000     0.446990000000    -0.369358   
O244     O      0.455800000000     0.570810000000     0.504620000000    -0.361056   
O245     O      0.562090000000     0.521070000000     0.395350000000    -0.345602   
O246     O      0.539450000000     0.457170000000     0.388080000000    -0.34795    
O247     O      0.617530000000     0.598790000000     0.427380000000    -0.526407   
O248     O      0.625540000000     0.526360000000     0.475150000000    -0.36386    
O249     O      0.484340000000     0.589220000000     0.385280000000    -0.340348   
O250     O      0.375500000000     0.512560000000     0.394050000000    -0.531421   
O251     O      0.505740000000     0.550970000000     0.460680000000    -0.627782   
O252     O      0.504200000000     0.509840000000     0.411270000000    -0.470119   
O253     O      0.534930000000     0.505600000000     0.510090000000    -0.495147   
O254     O      0.414320000000     0.450880000000     0.422570000000    -0.629009   
O255     O      0.533100000000     0.464220000000     0.460040000000    -0.622757   
O256     O      0.417470000000     0.491170000000     0.472420000000    -0.495627   
Zr1      Zr     0.056200000000     0.991900000000     0.957730000000     1.39122    
Zr2      Zr     0.968930000000     0.022790000000     0.911730000000     1.37958    
Zr3      Zr     0.973090000000     0.918520000000     0.026680000000     1.38024    
Zr4      Zr     0.884730000000     0.948800000000     0.980370000000     1.38735    
Zr5      Zr     0.999050000000     0.029030000000     0.010180000000     1.36539    
Zr6      Zr     0.942040000000     0.911940000000     0.928800000000     1.36877    
Zr7      Zr     0.936690000000     0.895950000000     0.480580000000     1.37977    
Zr8      Zr     0.922660000000     0.972200000000     0.406710000000     1.37696    
Zr9      Zr     0.020470000000     0.987850000000     0.533060000000     1.37585    
Zr10     Zr     0.005890000000     0.063940000000     0.460040000000     1.38106    
Zr11     Zr     0.035960000000     0.985240000000     0.437600000000     1.36066    
Zr12     Zr     0.906020000000     0.974130000000     0.501980000000     1.35796    
Zr13     Zr     0.001570000000     0.431010000000     0.019860000000     1.38028    
Zr14     Zr     0.885860000000     0.409160000000     0.977230000000     1.38563    
Zr15     Zr     0.057790000000     0.534220000000     0.960590000000     1.3649     
Zr16     Zr     0.940820000000     0.513270000000     0.918120000000     1.38266    
Zr17     Zr     0.978240000000     0.434000000000     0.920310000000     1.36882    
Zr18     Zr     0.963640000000     0.509980000000     0.016460000000     1.36377    
Zr19     Zr     0.952350000000     0.429120000000     0.528300000000     1.37455    
Zr20     Zr     0.878420000000     0.442950000000     0.448820000000     1.3843     
Zr21     Zr     0.057420000000     0.519120000000     0.484410000000     1.37709    
Zr22     Zr     0.982590000000     0.530590000000     0.404430000000     1.37848    
Zr23     Zr     0.975310000000     0.427230000000     0.435380000000     1.36171    
Zr24     Zr     0.960050000000     0.533460000000     0.498140000000     1.36663    
Zr25     Zr     0.425560000000     0.974150000000     0.903560000000     1.37554    
Zr26     Zr     0.432560000000     0.889070000000     0.969750000000     1.37899    
Zr27     Zr     0.508490000000     0.057680000000     0.964410000000     1.379      
Zr28     Zr     0.515790000000     0.972580000000     0.030960000000     1.37741    
Zr29     Zr     0.404860000000     0.965970000000     0.000110000000     1.35419    
Zr30     Zr     0.536740000000     0.980850000000     0.934800000000     1.35557    
Zr31     Zr     0.461560000000     0.019310000000     0.408360000000     1.38053    
Zr32     Zr     0.384380000000     0.948900000000     0.482320000000     1.38482    
Zr33     Zr     0.554810000000     0.995170000000     0.452920000000     1.38723    
Zr34     Zr     0.477790000000     0.925770000000     0.527380000000     1.3789     
Zr35     Zr     0.499830000000     0.034430000000     0.504860000000     1.36555    
Zr36     Zr     0.440630000000     0.910850000000     0.430370000000     1.36669    
Zr37     Zr     0.451760000000     0.421350000000     0.026790000000     1.37726    
Zr38     Zr     0.380320000000     0.442620000000     0.949030000000     1.38436    
Zr39     Zr     0.558700000000     0.504290000000     0.981730000000     1.3642     
Zr40     Zr     0.486220000000     0.525100000000     0.903830000000     1.37106    
Zr41     Zr     0.468760000000     0.417020000000     0.932180000000     1.36277    
Zr42     Zr     0.470150000000     0.529710000000     0.998650000000     1.36187    
Zr43     Zr     0.504320000000     0.433750000000     0.515010000000     1.37832    
Zr44     Zr     0.387600000000     0.419530000000     0.478290000000     1.37197    
Zr45     Zr     0.562630000000     0.535790000000     0.454620000000     1.36241    
Zr46     Zr     0.446540000000     0.523280000000     0.418070000000     1.37192    
Zr47     Zr     0.472980000000     0.437460000000     0.416910000000     1.37114    
Zr48     Zr     0.476080000000     0.518610000000     0.515690000000     1.36881    


