data_structure

_audit_creation_method RASPA-1.0
_audit_creation_date 2023-6-4
_audit_author_name 'Poobodin Mano'

_cell_length_a    26.2382
_cell_length_b    28.3195
_cell_length_c    29.1174
_cell_angle_alpha 82.7381
_cell_angle_beta  96.3376
_cell_angle_gamma 119.44
_cell_volume      18661.6

_symmetry_cell_setting          triclinic
_symmetry_space_group_name_Hall 'P 1'
_symmetry_space_group_name_H-M  'P 1'
_symmetry_Int_Tables_number     1

_symmetry_equiv_pos_as_xyz 'x,y,z'

loop_
_atom_site_label
_atom_site_type_symbol
_atom_site_fract_x
_atom_site_fract_y
_atom_site_fract_z
_atom_site_charge
C1       C      0.170430000000     0.128400000000     0.002450000000     0.380254   
C2       C      0.913100000000     0.930800000000     0.827430000000     0.390542   
C3       C      0.042870000000     0.164520000000     0.948440000000     0.407033   
C4       C      0.077910000000     0.894890000000     0.914500000000     0.397991   
C5       C      0.933650000000     0.788600000000     0.016140000000     0.404676   
C6       C      0.897410000000     0.058950000000     0.057130000000     0.391114   
C7       C      0.803940000000     0.832960000000     0.955450000000     0.382315   
C8       C      0.048430000000     0.016760000000     0.142170000000     0.387948   
C9       C      0.040350000000     0.868780000000     0.426840000000     0.378562   
C10      C      0.800600000000     0.951620000000     0.440700000000     0.377389   
C11      C      0.048830000000     0.012910000000     0.330270000000     0.402827   
C12      C      0.824200000000     0.839560000000     0.557380000000     0.38468    
C13      C      0.945120000000     0.959410000000     0.646730000000     0.401563   
C14      C      0.182750000000     0.132510000000     0.436400000000     0.398409   
C15      C      0.941210000000     0.109560000000     0.534940000000     0.398085   
C16      C      0.197370000000     0.032040000000     0.534820000000     0.394185   
C17      C      0.019320000000     0.332950000000     0.955140000000     0.397584   
C18      C      0.833100000000     0.473970000000     0.037470000000     0.388903   
C19      C      0.855180000000     0.326860000000     0.887300000000     0.402306   
C20      C      0.003330000000     0.467750000000     0.134160000000     0.395879   
C21      C      0.125480000000     0.639880000000     0.053890000000     0.400286   
C22      C      0.983170000000     0.509220000000     0.801030000000     0.387496   
C23      C      0.973840000000     0.643020000000     0.982890000000     0.396171   
C24      C      0.146700000000     0.513260000000     0.882970000000     0.397102   
C25      C      0.962500000000     0.310390000000     0.519480000000     0.396042   
C26      C      0.829370000000     0.525790000000     0.471720000000     0.389125   
C27      C      0.842010000000     0.315640000000     0.423230000000     0.395965   
C28      C      0.941540000000     0.512130000000     0.621280000000     0.399428   
C29      C      0.119210000000     0.662660000000     0.530510000000     0.38351    
C30      C      0.992600000000     0.451370000000     0.318370000000     0.402473   
C31      C      0.997150000000     0.665570000000     0.419550000000     0.397468   
C32      C      0.136930000000     0.465330000000     0.449150000000     0.36556    
C33      C      0.286070000000     0.932690000000     0.935760000000     0.390802   
C34      C      0.529060000000     0.858450000000     0.910440000000     0.398173   
C35      C      0.313980000000     0.833220000000     0.042010000000     0.382976   
C36      C      0.535680000000     0.012090000000     0.816890000000     0.40729    
C37      C      0.664440000000     0.135430000000     0.909570000000     0.376795   
C38      C      0.452240000000     0.975580000000     0.136690000000     0.400655   
C39      C      0.689600000000     0.020060000000     0.018640000000     0.388568   
C40      C      0.453300000000     0.104410000000     0.043040000000     0.366688   
C41      C      0.545700000000     0.177170000000     0.443480000000     0.40407    
C42      C      0.303680000000     0.836180000000     0.465270000000     0.391695   
C43      C      0.404050000000     0.070290000000     0.554960000000     0.403481   
C44      C      0.455230000000     0.950350000000     0.322210000000     0.387976   
C45      C      0.579740000000     0.920840000000     0.402340000000     0.378315   
C46      C      0.561870000000     0.036500000000     0.635700000000     0.391888   
C47      C      0.439900000000     0.801980000000     0.514950000000     0.405825   
C48      C      0.679280000000     0.147540000000     0.502370000000     0.396885   
C49      C      0.472530000000     0.308540000000     0.024250000000     0.396907   
C50      C      0.331000000000     0.516860000000     0.969630000000     0.385215   
C51      C      0.353990000000     0.313400000000     0.920960000000     0.398725   
C52      C      0.482270000000     0.530460000000     0.117920000000     0.408667   
C53      C      0.622550000000     0.657200000000     0.028220000000     0.388498   
C54      C      0.502830000000     0.445590000000     0.818190000000     0.391119   
C55      C      0.511860000000     0.664700000000     0.913220000000     0.374635   
C56      C      0.649550000000     0.463550000000     0.948080000000     0.390995   
C57      C      0.512120000000     0.336810000000     0.456660000000     0.401272   
C58      C      0.343970000000     0.481840000000     0.542210000000     0.400115   
C59      C      0.375180000000     0.320750000000     0.417390000000     0.388585   
C60      C      0.515820000000     0.480120000000     0.635500000000     0.402252   
C61      C      0.636230000000     0.650590000000     0.548080000000     0.397259   
C62      C      0.471460000000     0.508220000000     0.301400000000     0.393261   
C63      C      0.472950000000     0.649780000000     0.481200000000     0.411995   
C64      C      0.639030000000     0.516810000000     0.376730000000     0.382955   
C65      C      0.517170000000     0.407880000000     0.751110000000    -0.0136333  
C66      C      0.448120000000     0.444900000000     0.744650000000    -0.0607928  
C67      C      0.550080000000     0.448690000000     0.710200000000    -0.0122371  
C68      C      0.484470000000     0.491130000000     0.709700000000     0.163723   
C69      C      0.493810000000     0.487800000000     0.229000000000    -0.0148531  
C70      C      0.439630000000     0.541570000000     0.226050000000    -0.0661577  
C71      C      0.533370000000     0.529850000000     0.193350000000    -0.00550581 
C72      C      0.473830000000     0.576970000000     0.183120000000     0.164178   
C73      C      0.461500000000     0.732120000000     0.554350000000    -0.0187085  
C74      C      0.387420000000     0.710350000000     0.488600000000    -0.0620977  
C75      C      0.503930000000     0.730440000000     0.523410000000    -0.00601171 
C76      C      0.428720000000     0.709530000000     0.455830000000     0.166565   
C77      C      0.537550000000     0.267620000000     0.493060000000    -0.0174906  
C78      C      0.490880000000     0.259480000000     0.411840000000    -0.0648392  
C79      C      0.588500000000     0.266240000000     0.474130000000    -0.00590563 
C80      C      0.541640000000     0.254860000000     0.394990000000     0.163813   
C81      C      0.609600000000     0.023070000000     0.711080000000    -0.0130547  
C82      C      0.571840000000     0.088780000000     0.701050000000    -0.0672918  
C83      C      0.571020000000     0.991890000000     0.751870000000    -0.010811   
C84      C      0.529020000000     0.057160000000     0.739620000000     0.168201   
C85      C      0.509630000000     0.980060000000     0.251330000000    -0.0118654  
C86      C      0.405830000000     0.904350000000     0.250100000000    -0.0634366  
C87      C      0.493790000000     0.012120000000     0.212200000000    -0.00858243 
C88      C      0.390780000000     0.934480000000     0.206570000000     0.159841   
C89      C      0.469270000000     0.724070000000     0.909380000000    -0.0122486  
C90      C      0.564300000000     0.756090000000     0.868410000000    -0.0611364  
C91      C      0.468780000000     0.770410000000     0.877550000000    -0.00695988 
C92      C      0.575410000000     0.816860000000     0.867630000000     0.163405   
C93      C      0.403120000000     0.157770000000     0.055270000000    -0.0188563  
C94      C      0.512940000000     0.199760000000     0.062790000000    -0.0682926  
C95      C      0.419250000000     0.216300000000     0.066830000000    -0.00966677 
C96      C      0.515780000000     0.248080000000     0.030440000000     0.163988   
C97      C      0.736890000000     0.249190000000     0.422040000000    -0.00862321 
C98      C      0.809300000000     0.218330000000     0.446520000000    -0.0617265  
C99      C      0.719310000000     0.241670000000     0.472130000000    -0.0150631  
C100     C      0.787820000000     0.204600000000     0.496640000000     0.16544    
C101     C      0.156810000000     0.761760000000     0.513640000000    -0.0197396  
C102     C      0.221070000000     0.727440000000     0.553540000000    -0.0604138  
C103     C      0.195840000000     0.784420000000     0.471520000000    -0.00958576 
C104     C      0.260190000000     0.746020000000     0.511900000000     0.160667   
C105     C      0.745990000000     0.578930000000     0.385040000000    -0.00814597 
C106     C      0.706710000000     0.479220000000     0.379780000000    -0.0673215  
C107     C      0.801350000000     0.576540000000     0.407130000000    -0.0101205  
C108     C      0.735670000000     0.474980000000     0.427610000000     0.174384   
C109     C      0.236550000000     0.522650000000     0.481430000000    -0.0140848  
C110     C      0.180880000000     0.424530000000     0.509110000000    -0.0668346  
C111     C      0.294490000000     0.522060000000     0.489640000000    -0.0090457  
C112     C      0.239260000000     0.423680000000     0.521130000000     0.166807   
C113     C      0.995370000000     0.566100000000     0.725780000000    -0.0225177  
C114     C      0.949160000000     0.463360000000     0.728670000000    -0.0675387  
C115     C      0.949330000000     0.564040000000     0.686650000000    -0.0101215  
C116     C      0.899350000000     0.463720000000     0.696470000000     0.166769   
C117     C      0.033030000000     0.435120000000     0.210960000000    -0.0156622  
C118     C      0.982640000000     0.492650000000     0.205090000000    -0.0716089  
C119     C      0.999410000000     0.403600000000     0.255070000000    -0.0121728  
C120     C      0.942030000000     0.452760000000     0.241270000000     0.169608   
C121     C      0.713440000000     0.234260000000     0.890490000000    -0.0141323  
C122     C      0.770210000000     0.182920000000     0.890810000000    -0.0677954  
C123     C      0.754320000000     0.275750000000     0.854630000000    -0.00683899 
C124     C      0.816720000000     0.232730000000     0.860790000000     0.161693   
C125     C      0.216500000000     0.787620000000     0.078520000000    -0.0197826  
C126     C      0.268540000000     0.735320000000     0.063760000000    -0.0651221  
C127     C      0.157210000000     0.733760000000     0.071810000000    -0.0101454  
C128     C      0.222010000000     0.691580000000     0.095050000000     0.166081   
C129     C      0.725230000000     0.428240000000     0.038570000000    -0.0160276  
C130     C      0.781920000000     0.525960000000     0.012630000000    -0.0678888  
C131     C      0.699680000000     0.414400000000     0.988720000000    -0.0109883  
C132     C      0.759570000000     0.512770000000     0.962090000000     0.162431   
C133     C      0.229100000000     0.468340000000     0.936260000000    -0.0063275  
C134     C      0.286640000000     0.571660000000     0.926610000000    -0.0637399  
C135     C      0.205810000000     0.468410000000     0.885660000000    -0.0187863  
C136     C      0.256210000000     0.568070000000     0.877250000000     0.160633   
C137     C      0.783600000000     0.748180000000     0.598560000000    -0.0137201  
C138     C      0.720890000000     0.793280000000     0.581210000000    -0.059299   
C139     C      0.739730000000     0.700410000000     0.571890000000     0.000950155
C140     C      0.669970000000     0.733490000000     0.590840000000     0.160952   
C141     C      0.319390000000     0.237050000000     0.375290000000    -0.0185502  
C142     C      0.337480000000     0.232870000000     0.461630000000    -0.0617525  
C143     C      0.269550000000     0.177550000000     0.387710000000    -0.0113227  
C144     C      0.271980000000     0.208320000000     0.467360000000     0.164797   
C145     C      0.724000000000     0.933040000000     0.376940000000    -0.014358   
C146     C      0.696020000000     0.899680000000     0.459970000000    -0.0633501  
C147     C      0.672400000000     0.944830000000     0.369600000000    -0.00278208 
C148     C      0.633000000000     0.871440000000     0.436320000000     0.162691   
C149     C      0.298880000000     0.086610000000     0.510430000000    -0.0149387  
C150     C      0.277350000000     0.068070000000     0.595940000000    -0.0605396  
C151     C      0.359900000000     0.126210000000     0.530940000000    -0.00578028 
C152     C      0.337690000000     0.070280000000     0.607350000000     0.161372   
C153     C      0.077790000000     0.811160000000     0.400080000000    -0.0158112  
C154     C      0.999000000000     0.774280000000     0.457080000000    -0.0675563  
C155     C      0.041730000000     0.757170000000     0.375400000000    -0.0119685  
C156     C      0.959760000000     0.729410000000     0.426550000000     0.172206   
C157     C      0.919310000000     0.174520000000     0.489690000000    -0.0128233  
C158     C      0.911220000000     0.163590000000     0.575820000000    -0.057335   
C159     C      0.964980000000     0.233280000000     0.492110000000    -0.00910402 
C160     C      0.941190000000     0.227560000000     0.575570000000     0.158144   
C161     C      0.904590000000     0.880950000000     0.760640000000    -0.0185166  
C162     C      0.866960000000     0.946610000000     0.751950000000    -0.0639071  
C163     C      0.948680000000     0.914500000000     0.723650000000    -0.00595192 
C164     C      0.906720000000     0.979530000000     0.711740000000     0.162591   
C165     C      0.033230000000     0.052790000000     0.207940000000    -0.0150202  
C166     C      0.073070000000     0.986060000000     0.219420000000    -0.0652133  
C167     C      0.058280000000     0.069660000000     0.256860000000    -0.00916665 
C168     C      0.102050000000     0.008330000000     0.266200000000     0.166045   
C169     C      0.725590000000     0.723350000000     0.045940000000    -0.0154504  
C170     C      0.654640000000     0.754080000000     0.009020000000    -0.0667792  
C171     C      0.760260000000     0.745340000000     0.002250000000    -0.00964295 
C172     C      0.712570000000     0.805940000000     0.994890000000     0.162695   
C173     C      0.269270000000     0.169260000000     0.974130000000    -0.0142458  
C174     C      0.198720000000     0.198480000000     0.938430000000    -0.0713825  
C175     C      0.320810000000     0.226780000000     0.967110000000    -0.00941167 
C176     C      0.248050000000     0.255980000000     0.925800000000     0.167725   
C177     C      0.825320000000     0.065830000000     0.098150000000    -0.013186   
C178     C      0.852400000000     0.111340000000     0.020620000000    -0.0658252  
C179     C      0.764690000000     0.023300000000     0.079220000000    -0.00872915 
C180     C      0.794820000000     0.067770000000     0.997730000000     0.16531    
C181     C      0.146250000000     0.895690000000     0.863980000000    -0.0148939  
C182     C      0.121680000000     0.837400000000     0.939150000000    -0.0596123  
C183     C      0.205650000000     0.896550000000     0.875000000000    -0.00669493 
C184     C      0.184420000000     0.873240000000     0.960360000000     0.164962   
C185     C      0.996230000000     0.717460000000     0.030940000000    -0.0170635  
C186     C      0.931820000000     0.702660000000     0.956500000000    -0.0680723  
C187     C      0.947520000000     0.715130000000     0.057210000000    -0.0102812  
C188     C      0.884030000000     0.698280000000     0.985480000000     0.167771   
C189     C      0.052680000000     0.268950000000     0.991760000000    -0.0162287  
C190     C      0.007630000000     0.260300000000     0.908940000000    -0.0649054  
C191     C      0.097400000000     0.256200000000     0.975440000000    -0.00640038 
C192     C      0.052870000000     0.245580000000     0.895990000000     0.16488    
H1       H      0.029320000000     0.980030000000     0.877270000000     0.188044   
H2       H      0.923350000000     0.056640000000     0.973690000000     0.195081   
H3       H      0.888360000000     0.852690000000     0.024250000000     0.207585   
H4       H      0.103670000000     0.018200000000     0.059990000000     0.203852   
H5       H      0.904460000000     0.091680000000     0.890760000000     0.136983   
H6       H      0.764880000000     0.947430000000     0.965980000000     0.213615   
H7       H      0.815030000000     0.895640000000     0.091870000000     0.139714   
H8       H      0.908540000000     0.847010000000     0.131220000000     0.200416   
H9       H      0.083820000000     0.877600000000     0.067800000000     0.142553   
H10      H      0.206870000000     0.008010000000     0.010430000000     0.209884   
H11      H      0.118240000000     0.083140000000     0.880260000000     0.1356     
H12      H      0.037270000000     0.068270000000     0.816230000000     0.191494   
H13      H      0.971240000000     0.851580000000     0.156190000000     0.202106   
H14      H      0.222630000000     0.027800000000     0.954810000000     0.21154    
H15      H      0.019300000000     0.116530000000     0.820650000000     0.213063   
H16      H      0.752820000000     0.926350000000     0.021980000000     0.198795   
H17      H      0.859370000000     0.897500000000     0.462500000000     0.193139   
H18      H      0.057450000000     0.075860000000     0.397620000000     0.192455   
H19      H      0.012120000000     0.057360000000     0.577970000000     0.190538   
H20      H      0.072100000000     0.914500000000     0.521600000000     0.190346   
H21      H      0.963180000000     0.092450000000     0.361790000000     0.131552   
H22      H      0.033370000000     0.186420000000     0.429490000000     0.200655   
H23      H      0.136680000000     0.152780000000     0.557980000000     0.13746    
H24      H      0.108730000000     0.079540000000     0.634120000000     0.186765   
H25      H      0.033780000000     0.884890000000     0.628470000000     0.143201   
H26      H      0.018750000000     0.823350000000     0.548420000000     0.191106   
H27      H      0.859500000000     0.799720000000     0.435530000000     0.127863   
H28      H      0.880490000000     0.883730000000     0.356780000000     0.191817   
H29      H      0.131410000000     0.036360000000     0.660030000000     0.200794   
H30      H      0.953640000000     0.794050000000     0.571680000000     0.198996   
H31      H      0.868010000000     0.928760000000     0.321290000000     0.201599   
H32      H      0.079090000000     0.176850000000     0.400980000000     0.188251   
H33      H      0.914440000000     0.421350000000     0.061610000000     0.200208   
H34      H      0.899650000000     0.452480000000     0.872550000000     0.197425   
H35      H      0.061820000000     0.622000000000     0.968520000000     0.197363   
H36      H      0.094620000000     0.447780000000     0.967210000000     0.200286   
H37      H      0.773520000000     0.397750000000     0.903610000000     0.140334   
H38      H      0.867030000000     0.570970000000     0.876380000000     0.204957   
H39      H      0.075500000000     0.658860000000     0.874850000000     0.127514   
H40      H      0.190720000000     0.666610000000     0.924690000000     0.193671   
H41      H      0.208660000000     0.559290000000     0.029470000000     0.153111   
H42      H      0.127850000000     0.418490000000     0.054620000000     0.201081   
H43      H      0.909440000000     0.310590000000     0.051410000000     0.13267    
H44      H      0.803650000000     0.307820000000     0.019600000000     0.18783    
H45      H      0.234580000000     0.651170000000     0.962080000000     0.196791   
H46      H      0.095330000000     0.398780000000     0.105080000000     0.205216   
H47      H      0.753840000000     0.322180000000     0.990000000000     0.191472   
H48      H      0.868960000000     0.533880000000     0.836850000000     0.200731   
H49      H      0.880360000000     0.461550000000     0.544680000000     0.206055   
H50      H      0.913970000000     0.440230000000     0.371710000000     0.20897    
H51      H      0.074590000000     0.623040000000     0.451570000000     0.19718    
H52      H      0.061830000000     0.429170000000     0.521940000000     0.202243   
H53      H      0.841110000000     0.494760000000     0.368710000000     0.134048   
H54      H      0.970960000000     0.585580000000     0.289770000000     0.210023   
H55      H      0.125990000000     0.622640000000     0.379330000000     0.126405   
H56      H      0.212100000000     0.627050000000     0.449010000000     0.193079   
H57      H      0.167460000000     0.546860000000     0.580690000000     0.139762   
H58      H      0.051860000000     0.403630000000     0.618350000000     0.202432   
H59      H      0.849220000000     0.344170000000     0.576550000000     0.133905   
H60      H      0.760620000000     0.369180000000     0.509310000000     0.193649   
H61      H      0.231680000000     0.621850000000     0.505310000000     0.194185   
H62      H      0.047950000000     0.452640000000     0.641890000000     0.205198   
H63      H      0.734580000000     0.357510000000     0.454500000000     0.19854    
H64      H      0.915870000000     0.572140000000     0.322240000000     0.196151   
H65      H      0.471010000000     0.913420000000     0.888860000000     0.191303   
H66      H      0.438650000000     0.900720000000     0.072980000000     0.201928   
H67      H      0.629290000000     0.075760000000     0.997890000000     0.19651    
H68      H      0.411460000000     0.053870000000     0.945780000000     0.199551   
H69      H      0.436820000000     0.783160000000     0.041980000000     0.138272   
H70      H      0.584210000000     0.902480000000     0.103020000000     0.205899   
H71      H      0.623050000000     0.091090000000     0.096730000000     0.130015   
H72      H      0.632920000000     0.192170000000     0.015030000000     0.185128   
H73      H      0.520130000000     0.161030000000     0.891650000000     0.140155   
H74      H      0.368810000000     0.050140000000     0.852030000000     0.199291   
H75      H      0.359270000000     0.882130000000     0.852210000000     0.12587    
H76      H      0.364990000000     0.758270000000     0.960370000000     0.191852   
H77      H      0.601220000000     0.217550000000     0.973750000000     0.19273    
H78      H      0.436380000000     0.081850000000     0.832520000000     0.207832   
H79      H      0.346920000000     0.796700000000     0.920890000000     0.185798   
H80      H      0.529780000000     0.896070000000     0.132790000000     0.199998   
H81      H      0.376350000000     0.948370000000     0.399540000000     0.203271   
H82      H      0.444050000000     0.989410000000     0.582210000000     0.196427   
H83      H      0.549100000000     0.904650000000     0.495680000000     0.195159   
H84      H      0.594540000000     0.111660000000     0.439580000000     0.198805   
H85      H      0.320380000000     0.874610000000     0.564700000000     0.142464   
H86      H      0.396140000000     0.847480000000     0.617710000000     0.203393   
H87      H      0.601460000000     0.931090000000     0.609450000000     0.140768   
H88      H      0.642650000000     0.947540000000     0.532420000000     0.185704   
H89      H      0.691450000000     0.080520000000     0.397560000000     0.135506   
H90      H      0.571920000000     0.126020000000     0.328400000000     0.192671   
H91      H      0.400320000000     0.084230000000     0.368770000000     0.142196   
H92      H      0.317430000000     0.012110000000     0.429190000000     0.201038   
H93      H      0.703890000000     0.005470000000     0.520180000000     0.212639   
H94      H      0.506590000000     0.117820000000     0.306520000000     0.20477    
H95      H      0.264870000000     0.961810000000     0.460850000000     0.210065   
H96      H      0.431990000000     0.901700000000     0.648760000000     0.197083   
H97      H      0.387120000000     0.460680000000     0.043080000000     0.208622   
H98      H      0.424190000000     0.434560000000     0.871640000000     0.199791   
H99      H      0.582260000000     0.618240000000     0.948340000000     0.200141   
H100     H      0.569200000000     0.425760000000     0.023450000000     0.204828   
H101     H      0.334160000000     0.463690000000     0.861280000000     0.130444   
H102     H      0.415630000000     0.562770000000     0.827750000000     0.194341   
H103     H      0.630990000000     0.616340000000     0.868260000000     0.132483   
H104     H      0.719200000000     0.625730000000     0.952690000000     0.203532   
H105     H      0.639080000000     0.521260000000     0.088880000000     0.140972   
H106     H      0.560550000000     0.403390000000     0.114380000000     0.197825   
H107     H      0.364560000000     0.333620000000     0.087780000000     0.139071   
H108     H      0.297670000000     0.337600000000     0.016790000000     0.19253    
H109     H      0.737650000000     0.614870000000     0.008370000000     0.20577    
H110     H      0.517850000000     0.405920000000     0.151590000000     0.201072   
H111     H      0.252110000000     0.357980000000     0.988030000000     0.199592   
H112     H      0.458910000000     0.563400000000     0.789260000000     0.200904   
H113     H      0.431130000000     0.432440000000     0.568480000000     0.206488   
H114     H      0.392820000000     0.450180000000     0.378190000000     0.191599   
H115     H      0.559660000000     0.629830000000     0.463260000000     0.194219   
H116     H      0.600630000000     0.460330000000     0.462130000000     0.217819   
H117     H      0.283750000000     0.391630000000     0.405660000000     0.128533   
H118     H      0.359540000000     0.574520000000     0.381590000000     0.21534    
H119     H      0.561520000000     0.659430000000     0.367000000000     0.127772   
H120     H      0.673130000000     0.675120000000     0.404000000000     0.191244   
H121     H      0.727480000000     0.588470000000     0.499630000000     0.140594   
H122     H      0.632140000000     0.415330000000     0.552390000000     0.20596    
H123     H      0.436560000000     0.328020000000     0.572290000000     0.133692   
H124     H      0.290910000000     0.323800000000     0.533610000000     0.198724   
H125     H      0.724820000000     0.673640000000     0.442370000000     0.197875   
H126     H      0.648450000000     0.472230000000     0.576270000000     0.208896   
H127     H      0.255320000000     0.324560000000     0.482450000000     0.195734   
H128     H      0.348270000000     0.522780000000     0.352280000000     0.201528   
H129     H      0.591040000000     0.482640000000     0.724360000000     0.0414182  
H130     H      0.548670000000     0.400340000000     0.775490000000     0.0405939  
H131     H      0.518210000000     0.526840000000     0.728110000000     0.0114158  
H132     H      0.423350000000     0.456940000000     0.764930000000     0.0486676  
H133     H      0.563400000000     0.427550000000     0.688410000000     0.046195   
H134     H      0.484210000000     0.368480000000     0.737560000000     0.0439674  
H135     H      0.414780000000     0.409370000000     0.726030000000     0.0612091  
H136     H      0.441200000000     0.531320000000     0.698010000000     0.136668   
H137     H      0.568990000000     0.565070000000     0.210990000000     0.0380957  
H138     H      0.520710000000     0.473000000000     0.251940000000     0.042418   
H139     H      0.511550000000     0.615470000000     0.194930000000     0.00516855 
H140     H      0.433010000000     0.568120000000     0.247000000000     0.0577634  
H141     H      0.555550000000     0.512990000000     0.175550000000     0.0351098  
H142     H      0.457560000000     0.452590000000     0.211860000000     0.0432408  
H143     H      0.395470000000     0.509940000000     0.214040000000     0.0573907  
H144     H      0.433300000000     0.618680000000     0.164160000000     0.139546   
H145     H      0.533500000000     0.772410000000     0.508760000000     0.0319717  
H146     H      0.486100000000     0.760700000000     0.581600000000     0.045087   
H147     H      0.454000000000     0.750530000000     0.437280000000     0.0166972  
H148     H      0.355800000000     0.721960000000     0.468980000000     0.0607385  
H149     H      0.532470000000     0.716460000000     0.544830000000     0.0427404  
H150     H      0.434860000000     0.691050000000     0.572110000000     0.0447519  
H151     H      0.360890000000     0.668810000000     0.505700000000     0.0501832  
H152     H      0.378940000000     0.689060000000     0.399270000000     0.139454   
H153     H      0.621740000000     0.308210000000     0.462130000000     0.0239011  
H154     H      0.554430000000     0.293120000000     0.522970000000     0.0428866  
H155     H      0.577040000000     0.296500000000     0.384150000000     0.000835263
H156     H      0.474340000000     0.279650000000     0.383640000000     0.0610014  
H157     H      0.610840000000     0.251610000000     0.502250000000     0.0410018  
H158     H      0.504600000000     0.226010000000     0.506030000000     0.0527995  
H159     H      0.453810000000     0.217980000000     0.419760000000     0.0551001  
H160     H      0.518730000000     0.245980000000     0.329590000000     0.135651   
H161     H      0.532270000000     0.954550000000     0.739660000000     0.0359693  
H162     H      0.617180000000     0.994880000000     0.693070000000     0.0408448  
H163     H      0.485310000000     0.028640000000     0.723830000000     0.00209199 
H164     H      0.553120000000     0.109750000000     0.675640000000     0.0610186  
H165     H      0.596680000000     0.978830000000     0.778200000000     0.0447269  
H166     H      0.653250000000     0.054060000000     0.724620000000     0.0415364  
H167     H      0.613870000000     0.120760000000     0.716030000000     0.0641036  
H168     H      0.495000000000     0.103370000000     0.745690000000     0.140949   
H169     H      0.480030000000     0.038170000000     0.227020000000     0.0392666  
H170     H      0.546320000000     0.008510000000     0.273880000000     0.0434503  
H171     H      0.370930000000     0.957680000000     0.218020000000     0.00358538 
H172     H      0.366950000000     0.882030000000     0.271570000000     0.0498258  
H173     H      0.533320000000     0.039990000000     0.192570000000     0.0448092  
H174     H      0.525600000000     0.955660000000     0.236580000000     0.0424009  
H175     H      0.415940000000     0.873910000000     0.238840000000     0.0586608  
H176     H      0.311390000000     0.879830000000     0.189610000000     0.139276   
H177     H      0.462190000000     0.760610000000     0.840790000000     0.0311029  
H178     H      0.426130000000     0.687040000000     0.904270000000     0.0322848  
H179     H      0.579930000000     0.834600000000     0.830870000000    -0.00151754 
H180     H      0.552290000000     0.743560000000     0.832400000000     0.0504128  
H181     H      0.430850000000     0.775570000000     0.883830000000     0.0334202  
H182     H      0.474950000000     0.733560000000     0.946130000000     0.0519722  
H183     H      0.605920000000     0.755320000000     0.879200000000     0.0603214  
H184     H      0.660050000000     0.859370000000     0.873460000000     0.151494   
H185     H      0.379790000000     0.221440000000     0.060160000000     0.0308689  
H186     H      0.379780000000     0.150440000000     0.020480000000     0.037753   
H187     H      0.510240000000     0.238320000000     0.993670000000     0.00753739 
H188     H      0.550850000000     0.194480000000     0.057160000000     0.0538021  
H189     H      0.432140000000     0.220470000000     0.104370000000     0.0383795  
H190     H      0.373000000000     0.127280000000     0.081170000000     0.039007   
H191     H      0.518360000000     0.209040000000     0.099580000000     0.0575223  
H192     H      0.599640000000     0.289280000000     0.023290000000     0.130425   
H193     H      0.747060000000     0.279280000000     0.489880000000     0.0419378  
H194     H      0.728940000000     0.280990000000     0.401350000000     0.0383849  
H195     H      0.818520000000     0.239890000000     0.516780000000     0.0153224  
H196     H      0.856380000000     0.230680000000     0.446950000000     0.0634965  
H197     H      0.673320000000     0.233000000000     0.471430000000     0.0396951  
H198     H      0.708730000000     0.210820000000     0.405000000000     0.0295485  
H199     H      0.784800000000     0.181620000000     0.426790000000     0.0644967  
H200     H      0.782680000000     0.155480000000     0.550630000000     0.14987    
H201     H      0.173950000000     0.756230000000     0.443640000000     0.0293588  
H202     H      0.110840000000     0.750610000000     0.501820000000     0.0409387  
H203     H      0.246300000000     0.711860000000     0.490140000000     0.00364926 
H204     H      0.221880000000     0.691880000000     0.574110000000     0.0458796  
H205     H      0.198300000000     0.823910000000     0.458180000000     0.0396023  
H206     H      0.172070000000     0.794120000000     0.537850000000     0.0433505  
H207     H      0.239260000000     0.760650000000     0.577270000000     0.0531735  
H208     H      0.319040000000     0.730610000000     0.545390000000     0.13564    
H209     H      0.828050000000     0.578340000000     0.379170000000     0.0308146  
H210     H      0.756660000000     0.604160000000     0.351410000000     0.0319963  
H211     H      0.748870000000     0.443730000000     0.425850000000    -0.0108033  
H212     H      0.736770000000     0.486790000000     0.352330000000     0.0510736  
H213     H      0.827270000000     0.613070000000     0.426170000000     0.0528046  
H214     H      0.735200000000     0.600330000000     0.408500000000     0.0340231  
H215     H      0.666540000000     0.439970000000     0.373540000000     0.0571235  
H216     H      0.670100000000     0.417950000000     0.461420000000     0.129794   
H217     H      0.307080000000     0.516420000000     0.456350000000     0.0445624  
H218     H      0.241270000000     0.551960000000     0.450760000000     0.0386881  
H219     H      0.245520000000     0.404560000000     0.492770000000     0.000187784
H220     H      0.147930000000     0.384180000000     0.497100000000     0.0536343  
H221     H      0.328200000000     0.562750000000     0.500520000000     0.0468464  
H222     H      0.229820000000     0.537690000000     0.512290000000     0.0353635  
H223     H      0.165070000000     0.429690000000     0.541050000000     0.0585592  
H224     H      0.211140000000     0.353080000000     0.556250000000     0.140185   
H225     H      0.913320000000     0.565720000000     0.701950000000     0.0368482  
H226     H      0.005030000000     0.599310000000     0.747630000000     0.0497332  
H227     H      0.867880000000     0.466300000000     0.717620000000    -0.000588706
H228     H      0.930490000000     0.425590000000     0.752500000000     0.0582387  
H229     H      0.969790000000     0.600440000000     0.661570000000     0.040077   
H230     H      0.036740000000     0.577210000000     0.709710000000     0.0420626  
H231     H      0.982500000000     0.462900000000     0.708520000000     0.062624   
H232     H      0.843610000000     0.386500000000     0.695930000000     0.141408   
H233     H      0.961790000000     0.363940000000     0.245830000000     0.0383098  
H234     H      0.036880000000     0.405770000000     0.191520000000     0.0409898  
H235     H      0.907010000000     0.416450000000     0.224170000000     0.000955082
H236     H      0.957240000000     0.508430000000     0.181300000000     0.0584505  
H237     H      0.029070000000     0.394850000000     0.280670000000     0.0407406  
H238     H      0.078180000000     0.465940000000     0.221770000000     0.0409793  
H239     H      0.020020000000     0.527740000000     0.221550000000     0.067313   
H240     H      0.883030000000     0.475560000000     0.240710000000     0.137564   
H241     H      0.737840000000     0.261120000000     0.819490000000     0.0368051  
H242     H      0.668980000000     0.229280000000     0.880520000000     0.0370035  
H243     H      0.806550000000     0.223620000000     0.823670000000     0.00357774 
H244     H      0.763100000000     0.145060000000     0.877240000000     0.0609121  
H245     H      0.753960000000     0.314960000000     0.854100000000     0.0291878  
H246     H      0.727220000000     0.250250000000     0.925290000000     0.0433161  
H247     H      0.789380000000     0.184670000000     0.926930000000     0.0688163  
H248     H      0.876530000000     0.211240000000     0.861490000000     0.135582   
H249     H      0.126270000000     0.729170000000     0.097360000000     0.0355879  
H250     H      0.226280000000     0.793390000000     0.116160000000     0.0422108  
H251     H      0.230310000000     0.705470000000     0.130660000000     0.00306245 
H252     H      0.312150000000     0.741800000000     0.078920000000     0.0478862  
H253     H      0.137830000000     0.737810000000     0.036520000000     0.0307219  
H254     H      0.210980000000     0.822440000000     0.061810000000     0.0415199  
H255     H      0.261730000000     0.720840000000     0.028660000000     0.0612232  
H256     H      0.257990000000     0.646920000000     0.119020000000     0.137998   
H257     H      0.725990000000     0.401220000000     0.972050000000     0.0354936  
H258     H      0.727970000000     0.393170000000     0.058260000000     0.0391582  
H259     H      0.790570000000     0.503890000000     0.946690000000     0.0139002  
H260     H      0.825850000000     0.562680000000     0.013540000000     0.0571141  
H261     H      0.654790000000     0.379280000000     0.990210000000     0.0432614  
H262     H      0.694880000000     0.435380000000     0.056840000000     0.0422734  
H263     H      0.751900000000     0.534900000000     0.029290000000     0.0586539  
H264     H      0.800260000000     0.584860000000     0.930000000000     0.128623   
H265     H      0.237110000000     0.469630000000     0.862230000000     0.0486948  
H266     H      0.233780000000     0.431220000000     0.943810000000     0.034025   
H267     H      0.285140000000     0.566920000000     0.852520000000    -0.000921067
H268     H      0.332570000000     0.605270000000     0.925040000000     0.0499865  
H269     H      0.164080000000     0.430160000000     0.880220000000     0.0452518  
H270     H      0.195930000000     0.464010000000     0.959440000000     0.0334295  
H271     H      0.264320000000     0.582040000000     0.950600000000     0.0538855  
H272     H      0.288780000000     0.645120000000     0.857680000000     0.131221   
H273     H      0.754730000000     0.707420000000     0.536130000000     0.0420674  
H274     H      0.828400000000     0.753790000000     0.596750000000     0.0369232  
H275     H      0.628420000000     0.731860000000     0.575250000000    -0.000727396
H276     H      0.709990000000     0.809950000000     0.547240000000     0.0445297  
H277     H      0.739380000000     0.662800000000     0.588900000000     0.0357689  
H278     H      0.774170000000     0.739610000000     0.635900000000     0.0525452  
H279     H      0.723520000000     0.819170000000     0.608030000000     0.0575022  
H280     H      0.644230000000     0.736680000000     0.649830000000     0.141739   
H281     H      0.237720000000     0.164090000000     0.357270000000     0.0346301  
H282     H      0.299030000000     0.259710000000     0.354230000000     0.0327262  
H283     H      0.260110000000     0.241350000000     0.465170000000     0.00643899 
H284     H      0.363640000000     0.256740000000     0.491410000000     0.0555303  
H285     H      0.288920000000     0.149970000000     0.394120000000     0.0375346  
H286     H      0.351180000000     0.235920000000     0.353810000000     0.0359883  
H287     H      0.349640000000     0.200540000000     0.461430000000     0.0515078  
H288     H      0.268260000000     0.204660000000     0.534140000000     0.136792   
H289     H      0.689810000000     0.988250000000     0.375270000000     0.0496071  
H290     H      0.760100000000     0.965590000000     0.356240000000     0.04512    
H291     H      0.601280000000     0.858280000000     0.463950000000    -0.0113093  
H292     H      0.698430000000     0.927250000000     0.484780000000     0.0520583  
H293     H      0.654760000000     0.939050000000     0.333030000000     0.0371327  
H294     H      0.711530000000     0.893590000000     0.363340000000     0.0506316  
H295     H      0.704430000000     0.867970000000     0.480220000000     0.0489459  
H296     H      0.614800000000     0.795820000000     0.440140000000     0.136847   
H297     H      0.392090000000     0.144340000000     0.503350000000     0.033422   
H298     H      0.302050000000     0.056310000000     0.492150000000     0.0486125  
H299     H      0.329000000000     0.027400000000     0.615640000000     0.00751646 
H300     H      0.245820000000     0.035580000000     0.620000000000     0.0535008  
H301     H      0.358470000000     0.160300000000     0.544910000000     0.0468536  
H302     H      0.283560000000     0.109490000000     0.484280000000     0.0535182  
H303     H      0.280560000000     0.107190000000     0.602960000000     0.0627532  
H304     H      0.345860000000     0.075180000000     0.673940000000     0.137785   
H305     H      0.019030000000     0.765140000000     0.343290000000     0.038916   
H306     H      0.099410000000     0.845790000000     0.373580000000     0.0412445  
H307     H      0.937960000000     0.744800000000     0.398230000000     0.00386265 
H308     H      0.971390000000     0.784490000000     0.475310000000     0.0411103  
H309     H      0.072470000000     0.744560000000     0.364860000000     0.0362147  
H310     H      0.112310000000     0.808160000000     0.423380000000     0.0337643  
H311     H      0.023340000000     0.760380000000     0.484010000000     0.0575596  
H312     H      0.887550000000     0.697220000000     0.458650000000     0.143227   
H313     H      0.009230000000     0.237020000000     0.499850000000     0.0433597  
H314     H      0.927590000000     0.157830000000     0.460360000000     0.035529   
H315     H      0.984900000000     0.241920000000     0.594540000000    -0.000220641
H316     H      0.927880000000     0.147710000000     0.607400000000     0.0429593  
H317     H      0.964450000000     0.252970000000     0.456680000000     0.04284    
H318     H      0.875080000000     0.169330000000     0.482270000000     0.0574206  
H319     H      0.863340000000     0.145140000000     0.578830000000     0.0644722  
H320     H      0.913720000000     0.233430000000     0.632790000000     0.139926   
H321     H      0.991810000000     0.942020000000     0.740550000000     0.0332012  
H322     H      0.922510000000     0.858890000000     0.785530000000     0.0435575  
H323     H      0.945950000000     0.015570000000     0.725680000000    -0.00205308 
H324     H      0.858720000000     0.973910000000     0.770630000000     0.0604485  
H325     H      0.954140000000     0.885560000000     0.704810000000     0.0357768  
H326     H      0.863230000000     0.849860000000     0.744080000000     0.0451357  
H327     H      0.823560000000     0.916050000000     0.737580000000     0.0635761  
H328     H      0.878020000000     0.030240000000     0.688850000000     0.137848   
H329     H      0.101650000000     0.107100000000     0.254340000000     0.0319677  
H330     H      0.040120000000     0.090060000000     0.185490000000     0.0421954  
H331     H      0.146630000000     0.043840000000     0.261040000000     0.00105427 
H332     H      0.103560000000     0.977380000000     0.202880000000     0.0529366  
H333     H      0.029070000000     0.080670000000     0.272430000000     0.0359072  
H334     H      0.985160000000     0.025150000000     0.209340000000     0.0395476  
H335     H      0.031780000000     0.947100000000     0.225390000000     0.0641632  
H336     H      0.141880000000     0.966330000000     0.287350000000     0.13894    
H337     H      0.806190000000     0.755430000000     0.013140000000     0.0454061  
H338     H      0.744540000000     0.754800000000     0.071350000000     0.0391682  
H339     H      0.731850000000     0.829790000000     0.025750000000    -0.00433765 
H340     H      0.631120000000     0.764670000000     0.031830000000     0.0543395  
H341     H      0.742600000000     0.713670000000     0.977280000000     0.0502822  
H342     H      0.729510000000     0.687860000000     0.063290000000     0.0395174  
H343     H      0.626320000000     0.739900000000     0.976780000000     0.0673379  
H344     H      0.677990000000     0.851950000000     0.973740000000     0.148308   
H345     H      0.332220000000     0.245530000000     0.000610000000     0.0354673  
H346     H      0.279870000000     0.148830000000     0.006020000000     0.0357187  
H347     H      0.245600000000     0.282480000000     0.949430000000     4.12219e-05
H348     H      0.160010000000     0.201980000000     0.944910000000     0.0638998  
H349     H      0.358870000000     0.223480000000     0.957740000000     0.0454502  
H350     H      0.263940000000     0.145860000000     0.944340000000     0.0432307  
H351     H      0.186570000000     0.173840000000     0.908240000000     0.0653063  
H352     H      0.207840000000     0.284250000000     0.879840000000     0.144926   
H353     H      0.764240000000     0.983950000000     0.079090000000     0.0335     
H354     H      0.839600000000     0.047670000000     0.129620000000     0.0313271  
H355     H      0.803380000000     0.037210000000     0.984930000000     0.00133651 
H356     H      0.887930000000     0.129290000000     0.995750000000     0.0435076  
H357     H      0.732610000000     0.016730000000     0.104540000000     0.0424973  
H358     H      0.821570000000     0.100190000000     0.109110000000     0.0400001  
H359     H      0.845990000000     0.145130000000     0.029370000000     0.0594541  
H360     H      0.800090000000     0.097270000000     0.933630000000     0.136493   
H361     H      0.201190000000     0.857160000000     0.867340000000     0.0351039  
H362     H      0.124650000000     0.873550000000     0.832530000000     0.034023   
H363     H      0.198990000000     0.845320000000     0.980450000000    -0.000952627
H364     H      0.120030000000     0.802340000000     0.924290000000     0.0462588  
H365     H      0.237370000000     0.928920000000     0.851010000000     0.0397168  
H366     H      0.155230000000     0.938430000000     0.855060000000     0.0395961  
H367     H      0.089550000000     0.820090000000     0.966590000000     0.0476023  
H368     H      0.168800000000     0.886400000000     0.019740000000     0.132787   
H369     H      0.918720000000     0.672520000000     0.071080000000     0.0394115  
H370     H      0.021370000000     0.701140000000     0.054360000000     0.045973   
H371     H      0.858320000000     0.655540000000     0.000500000000    -0.00496287 
H372     H      0.910710000000     0.675100000000     0.928090000000     0.0519097  
H373     H      0.966360000000     0.740230000000     0.087360000000     0.0378186  
H374     H      0.027680000000     0.760680000000     0.021290000000     0.0342162  
H375     H      0.957460000000     0.744670000000     0.940180000000     0.072789   
H376     H      0.822560000000     0.683610000000     0.936740000000     0.134223   
H377     H      0.135380000000     0.294610000000     0.962140000000     0.0266126  
H378     H      0.075600000000     0.299010000000     0.018160000000     0.0396244  
H379     H      0.092920000000     0.283760000000     0.884900000000     3.8784e-05 
H380     H      0.999360000000     0.284190000000     0.878640000000     0.0668873  
H381     H      0.115470000000     0.238730000000     0.004850000000     0.0430581  
H382     H      0.016740000000     0.231570000000     0.008480000000     0.0499477  
H383     H      0.965670000000     0.222330000000     0.915600000000     0.0589038  
H384     H      0.032130000000     0.235260000000     0.830490000000     0.137735   
N1       N      0.514950000000     0.472080000000     0.683000000000    -0.178793   
N2       N      0.487150000000     0.429290000000     0.774410000000    -0.16086    
N3       N      0.497630000000     0.547960000000     0.161580000000    -0.182085   
N4       N      0.469560000000     0.513700000000     0.253970000000    -0.159758   
N5       N      0.470690000000     0.696110000000     0.484690000000    -0.184704   
N6       N      0.423360000000     0.748180000000     0.523990000000    -0.16099    
N7       N      0.564820000000     0.231810000000     0.434760000000    -0.184892   
N8       N      0.510650000000     0.288450000000     0.454700000000    -0.162744   
N9       N      0.550310000000     0.024680000000     0.771640000000    -0.180168   
N10      N      0.582900000000     0.050720000000     0.679740000000    -0.160386   
N11      N      0.444900000000     0.974050000000     0.182860000000    -0.179632   
N12      N      0.457170000000     0.943240000000     0.277020000000    -0.159392   
N13      N      0.525890000000     0.818990000000     0.884920000000    -0.17888    
N14      N      0.517110000000     0.714940000000     0.898610000000    -0.15327    
N15      N      0.468310000000     0.258840000000     0.039520000000    -0.179639   
N16      N      0.455540000000     0.151070000000     0.054970000000    -0.157368   
N17      N      0.727830000000     0.197460000000     0.496920000000    -0.185089   
N18      N      0.798860000000     0.262210000000     0.423410000000    -0.161358   
N19      N      0.255340000000     0.790480000000     0.482560000000    -0.180224   
N20      N      0.161100000000     0.715040000000     0.537650000000    -0.159349   
N21      N      0.788020000000     0.527330000000     0.438750000000    -0.179666   
N22      N      0.695080000000     0.524860000000     0.377450000000    -0.158215   
N23      N      0.291440000000     0.478470000000     0.524490000000    -0.181442   
N24      N      0.186270000000     0.468490000000     0.473910000000    -0.16097    
N25      N      0.925080000000     0.513110000000     0.664090000000    -0.18164    
N26      N      0.976280000000     0.512990000000     0.753640000000    -0.159147   
N27      N      0.977200000000     0.435070000000     0.274410000000    -0.183636   
N28      N      0.004750000000     0.463650000000     0.181610000000    -0.158425   
N29      N      0.813440000000     0.282530000000     0.864860000000    -0.179838   
N30      N      0.713040000000     0.181630000000     0.892290000000    -0.152359   
N31      N      0.164420000000     0.684670000000     0.076690000000    -0.180062   
N32      N      0.266480000000     0.787010000000     0.059790000000    -0.155784   
N33      N      0.701060000000     0.462850000000     0.961820000000    -0.180273   
N34      N      0.783110000000     0.477900000000     0.037350000000    -0.16024    
N35      N      0.199270000000     0.517030000000     0.875110000000    -0.179793   
N36      N      0.284720000000     0.519570000000     0.944470000000    -0.161129   
N37      N      0.680050000000     0.693990000000     0.569890000000    -0.178802   
N38      N      0.778460000000     0.796180000000     0.579460000000    -0.154176   
N39      N      0.238950000000     0.173020000000     0.429440000000    -0.182973   
N40      N      0.350620000000     0.265610000000     0.416980000000    -0.159914   
N41      N      0.624840000000     0.909720000000     0.400980000000    -0.180967   
N42      N      0.742200000000     0.931310000000     0.426630000000    -0.151498   
N43      N      0.376990000000     0.096190000000     0.568430000000    -0.176934   
N44      N      0.256410000000     0.058040000000     0.546910000000    -0.152561   
N45      N      0.997290000000     0.713700000000     0.405590000000    -0.182385   
N46      N      0.040530000000     0.820610000000     0.427980000000    -0.164504   
N47      N      0.951990000000     0.257260000000     0.528490000000    -0.174464   
N48      N      0.921020000000     0.145450000000     0.534130000000    -0.158348   
N49      N      0.928070000000     0.947200000000     0.691470000000    -0.180291   
N50      N      0.892760000000     0.917870000000     0.782950000000    -0.158413   
N51      N      0.066010000000     0.026740000000     0.285620000000    -0.181605   
N52      N      0.059450000000     0.024500000000     0.188490000000    -0.15878    
N53      N      0.757200000000     0.793730000000     0.979960000000    -0.18124    
N54      N      0.664550000000     0.710030000000     0.032870000000    -0.15956    
N55      N      0.308080000000     0.262340000000     0.931790000000    -0.178377   
N56      N      0.214920000000     0.170800000000     0.978550000000    -0.159617   
N57      N      0.748290000000     0.039320000000     0.031620000000    -0.17714    
N58      N      0.868940000000     0.086830000000     0.062960000000    -0.160303   
N59      N      0.226630000000     0.905680000000     0.924130000000    -0.17555    
N60      N      0.106190000000     0.869350000000     0.902270000000    -0.154969   
N61      N      0.913970000000     0.733930000000     0.023780000000    -0.184327   
N62      N      0.971050000000     0.688600000000     0.988050000000    -0.162471   
N63      N      0.068590000000     0.219670000000     0.938040000000    -0.184604   
N64      N      0.028120000000     0.290030000000     0.951510000000    -0.160328   
O1       O      0.169400000000     0.082750000000     0.006980000000    -0.385046   
O2       O      0.125190000000     0.131990000000     0.010790000000    -0.346946   
O3       O      0.923160000000     0.977350000000     0.838780000000    -0.368085   
O4       O      0.922050000000     0.896190000000     0.855350000000    -0.381429   
O5       O      0.020660000000     0.132750000000     0.915130000000    -0.360905   
O6       O      0.044790000000     0.147600000000     0.991330000000    -0.366223   
O7       O      0.110790000000     0.942650000000     0.927600000000    -0.371018   
O8       O      0.021250000000     0.869150000000     0.915330000000    -0.359152   
O9       O      0.144890000000     0.068510000000     0.892380000000    -0.358781   
O10      O      0.195400000000     0.015990000000     0.978980000000    -0.504712   
O11      O      0.019400000000     0.083240000000     0.832940000000    -0.52659    
O12      O      0.891470000000     0.055790000000     0.879300000000    -0.351441   
O13      O      0.054680000000     0.064140000000     0.954820000000    -0.494785   
O14      O      0.018070000000     0.981100000000     0.907450000000    -0.632082   
O15      O      0.959330000000     0.819330000000     0.050030000000    -0.380532   
O16      O      0.926780000000     0.806450000000     0.974690000000    -0.362906   
O17      O      0.864750000000     0.009680000000     0.047170000000    -0.391272   
O18      O      0.953400000000     0.085740000000     0.052640000000    -0.368548   
O19      O      0.812860000000     0.881680000000     0.950860000000    -0.348101   
O20      O      0.844710000000     0.823470000000     0.945850000000    -0.339334   
O21      O      0.036960000000     0.970020000000     0.130320000000    -0.374909   
O22      O      0.046910000000     0.054910000000     0.113410000000    -0.377729   
O23      O      0.950210000000     0.860620000000     0.130370000000    -0.522239   
O24      O      0.086160000000     0.904010000000     0.088340000000    -0.360048   
O25      O      0.829340000000     0.878020000000     0.073280000000    -0.374049   
O26      O      0.778300000000     0.938810000000     0.996500000000    -0.519267   
O27      O      0.917260000000     0.888650000000     0.013110000000    -0.634039   
O28      O      0.956300000000     0.972340000000     0.060000000000    -0.496468   
O29      O      0.033100000000     0.920380000000     0.989510000000    -0.497228   
O30      O      0.940010000000     0.032590000000     0.977180000000    -0.629062   
O31      O      0.071170000000     0.005760000000     0.037140000000    -0.625886   
O32      O      0.901310000000     0.947190000000     0.931930000000    -0.472954   
O33      O      0.990830000000     0.867010000000     0.427730000000    -0.359924   
O34      O      0.088360000000     0.914010000000     0.430210000000    -0.366869   
O35      O      0.837010000000     0.963780000000     0.409170000000    -0.370265   
O36      O      0.815990000000     0.954640000000     0.484580000000    -0.358842   
O37      O      0.001180000000     0.012210000000     0.338620000000    -0.377471   
O38      O      0.082100000000     0.003430000000     0.361760000000    -0.351688   
O39      O      0.860980000000     0.830150000000     0.539640000000    -0.371562   
O40      O      0.829040000000     0.887300000000     0.555990000000    -0.35574    
O41      O      0.875680000000     0.788650000000     0.464620000000    -0.353355   
O42      O      0.980300000000     0.819850000000     0.549090000000    -0.537291   
O43      O      0.885190000000     0.919890000000     0.349860000000    -0.521996   
O44      O      0.925390000000     0.058760000000     0.357700000000    -0.341394   
O45      O      0.986620000000     0.935310000000     0.427960000000    -0.467947   
O46      O      0.899550000000     0.924130000000     0.469450000000    -0.627167   
O47      O      0.991750000000     0.958010000000     0.638640000000    -0.377804   
O48      O      0.913150000000     0.970240000000     0.615020000000    -0.351634   
O49      O      0.151980000000     0.141420000000     0.462390000000    -0.364629   
O50      O      0.165200000000     0.086330000000     0.420230000000    -0.365996   
O51      O      0.988960000000     0.127550000000     0.514510000000    -0.386098   
O52      O      0.906140000000     0.058670000000     0.545700000000    -0.365425   
O53      O      0.161820000000     0.021270000000     0.566720000000    -0.363695   
O54      O      0.180500000000     0.022820000000     0.491820000000    -0.360842   
O55      O      0.109580000000     0.045700000000     0.635090000000    -0.5239     
O56      O      0.072940000000     0.912630000000     0.618020000000    -0.35873    
O57      O      0.110830000000     0.166290000000     0.541160000000    -0.347376   
O58      O      0.055360000000     0.167760000000     0.427190000000    -0.532806   
O59      O      0.009520000000     0.037340000000     0.552490000000    -0.623784   
O60      O      0.097070000000     0.045970000000     0.509950000000    -0.493476   
O61      O      0.957700000000     0.925040000000     0.555830000000    -0.495686   
O62      O      0.039150000000     0.049480000000     0.423270000000    -0.631119   
O63      O      0.049870000000     0.933550000000     0.513730000000    -0.620497   
O64      O      0.950210000000     0.040270000000     0.465420000000    -0.49367    
O65      O      0.021850000000     0.347460000000     0.996040000000    -0.375296   
O66      O      0.010070000000     0.357080000000     0.917450000000    -0.367718   
O67      O      0.827220000000     0.428570000000     0.028550000000    -0.388454   
O68      O      0.883770000000     0.517230000000     0.039740000000    -0.35719    
O69      O      0.835890000000     0.345020000000     0.915330000000    -0.390393   
O70      O      0.909960000000     0.350460000000     0.877470000000    -0.339173   
O71      O      0.015380000000     0.436650000000     0.113920000000    -0.371173   
O72      O      0.988680000000     0.502060000000     0.112180000000    -0.388428   
O73      O      0.943030000000     0.327500000000     0.074140000000    -0.34989    
O74      O      0.094870000000     0.409900000000     0.072330000000    -0.523384   
O75      O      0.794300000000     0.332060000000     0.998540000000    -0.515283   
O76      O      0.802950000000     0.433740000000     0.914020000000    -0.35759    
O77      O      0.943730000000     0.389150000000     0.968320000000    -0.500551   
O78      O      0.936210000000     0.438340000000     0.034100000000    -0.634629   
O79      O      0.146720000000     0.622380000000     0.026580000000    -0.368535   
O80      O      0.070190000000     0.617700000000     0.060460000000    -0.353906   
O81      O      0.984940000000     0.547070000000     0.822620000000    -0.371443   
O82      O      0.984490000000     0.466590000000     0.821570000000    -0.377485   
O83      O      0.966650000000     0.627260000000     0.941670000000    -0.374975   
O84      O      0.983220000000     0.618230000000     0.019790000000    -0.377773   
O85      O      0.147460000000     0.554470000000     0.896970000000    -0.354483   
O86      O      0.099110000000     0.466840000000     0.881110000000    -0.367369   
O87      O      0.196110000000     0.641380000000     0.947610000000    -0.512608   
O88      O      0.183050000000     0.529060000000     0.009960000000    -0.369673   
O89      O      0.035020000000     0.648380000000     0.862370000000    -0.335575   
O90      O      0.886060000000     0.553870000000     0.864040000000    -0.523942   
O91      O      0.041950000000     0.583010000000     0.967370000000    -0.639757   
O92      O      0.047750000000     0.532830000000     0.902640000000    -0.480737   
O93      O      0.059030000000     0.509700000000     0.036030000000    -0.49443    
O94      O      0.925420000000     0.463110000000     0.900110000000    -0.630195   
O95      O      0.065800000000     0.459310000000     0.968490000000    -0.623674   
O96      O      0.917720000000     0.512470000000     0.966550000000    -0.487534   
O97      O      0.954840000000     0.334990000000     0.550720000000    -0.346713   
O98      O      0.978780000000     0.332940000000     0.478770000000    -0.371929   
O99      O      0.821580000000     0.479630000000     0.488780000000    -0.388848   
O100     O      0.880870000000     0.567360000000     0.476830000000    -0.33081    
O101     O      0.824410000000     0.349930000000     0.425510000000    -0.389722   
O102     O      0.897070000000     0.328620000000     0.425240000000    -0.346748   
O103     O      0.945260000000     0.469890000000     0.614440000000    -0.364864   
O104     O      0.950710000000     0.551980000000     0.589960000000    -0.377342   
O105     O      0.882750000000     0.356610000000     0.599810000000    -0.319973   
O106     O      0.035600000000     0.427770000000     0.618010000000    -0.52704    
O107     O      0.766970000000     0.376030000000     0.476510000000    -0.515822   
O108     O      0.822340000000     0.454710000000     0.374500000000    -0.360325   
O109     O      0.917600000000     0.395650000000     0.485160000000    -0.498419   
O110     O      0.909480000000     0.469370000000     0.523130000000    -0.623239   
O111     O      0.137940000000     0.629860000000     0.524430000000    -0.386534   
O112     O      0.064250000000     0.649680000000     0.526880000000    -0.361277   
O113     O      0.994420000000     0.496320000000     0.325230000000    -0.360311   
O114     O      0.997690000000     0.418450000000     0.351150000000    -0.381104   
O115     O      0.007870000000     0.641480000000     0.389890000000    -0.367677   
O116     O      0.983850000000     0.645940000000     0.461500000000    -0.34609    
O117     O      0.134210000000     0.508960000000     0.438110000000    -0.356447   
O118     O      0.089100000000     0.419680000000     0.446670000000    -0.356894   
O119     O      0.201980000000     0.610580000000     0.480140000000    -0.522327   
O120     O      0.146880000000     0.514320000000     0.562860000000    -0.366174   
O121     O      0.097430000000     0.610600000000     0.352370000000    -0.343338   
O122     O      0.952940000000     0.573590000000     0.319250000000    -0.515616   
O123     O      0.048670000000     0.584700000000     0.458240000000    -0.633059   
O124     O      0.058320000000     0.510160000000     0.421090000000    -0.464682   
O125     O      0.028410000000     0.522950000000     0.544850000000    -0.490094   
O126     O      0.935920000000     0.456980000000     0.399360000000    -0.62913    
O127     O      0.040130000000     0.447250000000     0.508090000000    -0.624388   
O128     O      0.927550000000     0.532450000000     0.434900000000    -0.496794   
O129     O      0.321250000000     0.944330000000     0.903320000000    -0.375157   
O130     O      0.303910000000     0.942530000000     0.978600000000    -0.349773   
O131     O      0.485200000000     0.842790000000     0.935090000000    -0.391063   
O132     O      0.571250000000     0.908810000000     0.906610000000    -0.346735   
O133     O      0.350820000000     0.825930000000     0.022200000000    -0.37884    
O134     O      0.320880000000     0.881020000000     0.046560000000    -0.344944   
O135     O      0.488170000000     0.010580000000     0.827020000000    -0.357638   
O136     O      0.570430000000     0.002790000000     0.846820000000    -0.369389   
O137     O      0.372290000000     0.918170000000     0.834770000000    -0.343005   
O138     O      0.406430000000     0.052080000000     0.850620000000    -0.530666   
O139     O      0.370440000000     0.793630000000     0.947860000000    -0.516062   
O140     O      0.470060000000     0.820650000000     0.042950000000    -0.352353   
O141     O      0.391280000000     0.922470000000     0.959790000000    -0.497395   
O142     O      0.476520000000     0.933340000000     0.915170000000    -0.624166   
O143     O      0.626730000000     0.142820000000     0.928200000000    -0.371929   
O144     O      0.658330000000     0.087410000000     0.907090000000    -0.338475   
O145     O      0.503890000000     0.988100000000     0.125440000000    -0.371451   
O146     O      0.408210000000     0.965200000000     0.107150000000    -0.352552   
O147     O      0.655000000000     0.010480000000     0.050910000000    -0.377049   
O148     O      0.672160000000     0.014890000000     0.975190000000    -0.350749   
O149     O      0.501910000000     0.105160000000     0.039760000000    -0.35123    
O150     O      0.404300000000     0.060110000000     0.036810000000    -0.360909   
O151     O      0.603120000000     0.186650000000     0.990400000000    -0.520743   
O152     O      0.495540000000     0.146900000000     0.918810000000    -0.365908   
O153     O      0.621490000000     0.056800000000     0.111050000000    -0.334579   
O154     O      0.556580000000     0.914250000000     0.108200000000    -0.526468   
O155     O      0.588950000000     0.048840000000     0.991930000000    -0.626399   
O156     O      0.501450000000     0.036260000000     0.036770000000    -0.465614   
O157     O      0.526280000000     0.044400000000     0.908230000000    -0.487093   
O158     O      0.453660000000     0.925070000000     0.045520000000    -0.627464   
O159     O      0.434130000000     0.035210000000     0.953460000000    -0.620255   
O160     O      0.543990000000     0.934150000000     0.999550000000    -0.489852   
O161     O      0.524190000000     0.145910000000     0.409790000000    -0.361374   
O162     O      0.550590000000     0.160010000000     0.485690000000    -0.37673    
O163     O      0.302830000000     0.881040000000     0.462460000000    -0.385685   
O164     O      0.350240000000     0.834160000000     0.457180000000    -0.328335   
O165     O      0.370220000000     0.022170000000     0.542630000000    -0.384421   
O166     O      0.459650000000     0.097530000000     0.549070000000    -0.36273    
O167     O      0.482710000000     0.999620000000     0.333980000000    -0.362609   
O168     O      0.429820000000     0.908220000000     0.351270000000    -0.378923   
O169     O      0.395860000000     0.048930000000     0.362080000000    -0.368055   
O170     O      0.530090000000     0.109820000000     0.330850000000    -0.513054   
O171     O      0.305560000000     0.982750000000     0.453440000000    -0.525961   
O172     O      0.311610000000     0.905020000000     0.556770000000    -0.343497   
O173     O      0.449470000000     0.049610000000     0.468800000000    -0.502408   
O174     O      0.408720000000     0.961550000000     0.422490000000    -0.630485   
O175     O      0.591580000000     0.970390000000     0.396920000000    -0.363756   
O176     O      0.529320000000     0.884080000000     0.416540000000    -0.358095   
O177     O      0.550100000000     0.988940000000     0.625670000000    -0.37953    
O178     O      0.554390000000     0.071210000000     0.606750000000    -0.380128   
O179     O      0.464110000000     0.833840000000     0.548230000000    -0.365904   
O180     O      0.430350000000     0.817520000000     0.473180000000    -0.366252   
O181     O      0.678740000000     0.108580000000     0.483840000000    -0.373744   
O182     O      0.633980000000     0.144090000000     0.519490000000    -0.361594   
O183     O      0.662060000000     0.982680000000     0.515230000000    -0.535756   
O184     O      0.697950000000     0.059430000000     0.425180000000    -0.331637   
O185     O      0.563210000000     0.897810000000     0.605580000000    -0.349558   
O186     O      0.428350000000     0.883670000000     0.621570000000    -0.532479   
O187     O      0.533930000000     0.929890000000     0.491420000000    -0.623775   
O188     O      0.574260000000     0.017120000000     0.537410000000    -0.498029   
O189     O      0.527020000000     0.991370000000     0.408820000000    -0.46718    
O190     O      0.456350000000     0.987410000000     0.552770000000    -0.63118    
O191     O      0.565620000000     0.076140000000     0.451560000000    -0.635111   
O192     O      0.418780000000     0.903890000000     0.507680000000    -0.491856   
O193     O      0.455160000000     0.331240000000     0.050310000000    -0.36656    
O194     O      0.496580000000     0.331360000000     0.985380000000    -0.351628   
O195     O      0.324150000000     0.470090000000     0.983630000000    -0.3934     
O196     O      0.381820000000     0.559400000000     0.975250000000    -0.349036   
O197     O      0.341820000000     0.351670000000     0.907780000000    -0.373352   
O198     O      0.407510000000     0.323290000000     0.930720000000    -0.35116    
O199     O      0.486790000000     0.488450000000     0.111570000000    -0.373858   
O200     O      0.468640000000     0.558200000000     0.085050000000    -0.360034   
O201     O      0.382120000000     0.370450000000     0.098690000000    -0.361562   
O202     O      0.527810000000     0.408100000000     0.120130000000    -0.529018   
O203     O      0.290780000000     0.361450000000     0.993270000000    -0.523452   
O204     O      0.307400000000     0.433590000000     0.882630000000    -0.352246   
O205     O      0.425910000000     0.389850000000     0.984840000000    -0.500173   
O206     O      0.414930000000     0.466440000000     0.020990000000    -0.620543   
O207     O      0.641120000000     0.623580000000     0.024890000000    -0.38545    
O208     O      0.568090000000     0.645370000000     0.021340000000    -0.359761   
O209     O      0.503440000000     0.490110000000     0.824410000000    -0.379314   
O210     O      0.507150000000     0.412450000000     0.851360000000    -0.373206   
O211     O      0.525410000000     0.640230000000     0.885870000000    -0.364567   
O212     O      0.489930000000     0.642940000000     0.952940000000    -0.355636   
O213     O      0.650170000000     0.509090000000     0.941050000000    -0.348502   
O214     O      0.600490000000     0.418780000000     0.946260000000    -0.364511   
O215     O      0.708610000000     0.605980000000     0.982740000000    -0.513724   
O216     O      0.650670000000     0.509590000000     0.063020000000    -0.371514   
O217     O      0.599870000000     0.602280000000     0.843180000000    -0.336733   
O218     O      0.449330000000     0.560090000000     0.821030000000    -0.527531   
O219     O      0.555300000000     0.580150000000     0.954970000000    -0.635207   
O220     O      0.565840000000     0.504950000000     0.920220000000    -0.472865   
O221     O      0.532320000000     0.519740000000     0.040140000000    -0.48861    
O222     O      0.445310000000     0.451070000000     0.899580000000    -0.624569   
O223     O      0.547130000000     0.443220000000     0.008910000000    -0.629564   
O224     O      0.431990000000     0.525080000000     0.930280000000    -0.499421   
O225     O      0.518620000000     0.354250000000     0.496950000000    -0.375634   
O226     O      0.506730000000     0.362070000000     0.418310000000    -0.37251    
O227     O      0.348750000000     0.439220000000     0.544210000000    -0.378115   
O228     O      0.391230000000     0.528440000000     0.542270000000    -0.343975   
O229     O      0.366420000000     0.337680000000     0.452980000000    -0.373086   
O230     O      0.411380000000     0.353140000000     0.386620000000    -0.360216   
O231     O      0.529220000000     0.450830000000     0.614150000000    -0.376548   
O232     O      0.500780000000     0.514720000000     0.614430000000    -0.362928   
O233     O      0.477930000000     0.345980000000     0.584470000000    -0.336241   
O234     O      0.620990000000     0.441320000000     0.559520000000    -0.529063   
O235     O      0.290110000000     0.340880000000     0.502830000000    -0.519235   
O236     O      0.301490000000     0.425690000000     0.421400000000    -0.363419   
O237     O      0.453050000000     0.400710000000     0.473140000000    -0.48838    
O238     O      0.448270000000     0.449770000000     0.539210000000    -0.622497   
O239     O      0.652490000000     0.632390000000     0.517680000000    -0.390227   
O240     O      0.582300000000     0.629430000000     0.558980000000    -0.352739   
O241     O      0.462390000000     0.540450000000     0.322650000000    -0.373518   
O242     O      0.484040000000     0.471980000000     0.322280000000    -0.383091   
O243     O      0.462470000000     0.630920000000     0.441010000000    -0.359479   
O244     O      0.486760000000     0.628280000000     0.518380000000    -0.379837   
O245     O      0.631720000000     0.556460000000     0.383820000000    -0.367387   
O246     O      0.594880000000     0.468430000000     0.376830000000    -0.364878   
O247     O      0.684950000000     0.656410000000     0.429330000000    -0.527823   
O248     O      0.696690000000     0.552720000000     0.489660000000    -0.344242   
O249     O      0.519950000000     0.646230000000     0.356280000000    -0.331177   
O250     O      0.372770000000     0.550680000000     0.372910000000    -0.526155   
O251     O      0.540630000000     0.590680000000     0.463730000000    -0.632558   
O252     O      0.542270000000     0.538940000000     0.397970000000    -0.48116    
O253     O      0.569470000000     0.525660000000     0.531140000000    -0.499338   
O254     O      0.420730000000     0.463720000000     0.404220000000    -0.627378   
O255     O      0.571670000000     0.471340000000     0.464430000000    -0.629561   
O256     O      0.419850000000     0.516800000000     0.471940000000    -0.488544   
O257     O      0.446220000000     0.505410000000     0.681450000000    -0.270975   
O258     O      0.436650000000     0.589370000000     0.151590000000    -0.274346   
O259     O      0.395340000000     0.671310000000     0.423350000000    -0.282737   
O260     O      0.522810000000     0.223080000000     0.356970000000    -0.278753   
O261     O      0.524350000000     0.094860000000     0.763650000000    -0.281018   
O262     O      0.350470000000     0.895860000000     0.176590000000    -0.276316   
O263     O      0.627080000000     0.848360000000     0.893510000000    -0.270734   
O264     O      0.570490000000     0.294110000000     0.038290000000    -0.286153   
O265     O      0.790080000000     0.158170000000     0.517440000000    -0.278083   
O266     O      0.317920000000     0.763350000000     0.529650000000    -0.276828   
O267     O      0.695520000000     0.457900000000     0.462200000000    -0.275996   
O268     O      0.234350000000     0.391760000000     0.563290000000    -0.275494   
O269     O      0.868670000000     0.415990000000     0.673150000000    -0.270562   
O270     O      0.915030000000     0.475980000000     0.262630000000    -0.282844   
O271     O      0.873230000000     0.240510000000     0.874200000000    -0.275533   
O272     O      0.223940000000     0.642510000000     0.097710000000    -0.282332   
O273     O      0.758880000000     0.557510000000     0.935610000000    -0.273647   
O274     O      0.249210000000     0.614100000000     0.863850000000    -0.271873   
O275     O      0.665200000000     0.719460000000     0.638780000000    -0.273017   
O276     O      0.258230000000     0.178260000000     0.510790000000    -0.280736   
O277     O      0.623470000000     0.825650000000     0.415170000000    -0.275527   
O278     O      0.365470000000     0.099510000000     0.646380000000    -0.280798   
O279     O      0.916510000000     0.686000000000     0.452860000000    -0.272335   
O280     O      0.906100000000     0.240300000000     0.599110000000    -0.268863   
O281     O      0.875340000000     0.997070000000     0.678250000000    -0.270513   
O282     O      0.106400000000     0.966840000000     0.295520000000    -0.272788   
O283     O      0.699020000000     0.836900000000     0.959410000000    -0.269419   
O284     O      0.237280000000     0.271880000000     0.879580000000    -0.271325   
O285     O      0.777100000000     0.093440000000     0.960100000000    -0.278382   
O286     O      0.183560000000     0.908210000000     0.989980000000    -0.26543    
O287     O      0.845150000000     0.712500000000     0.958290000000    -0.272572   
O288     O      0.030470000000     0.211730000000     0.859270000000    -0.283797   
Zr1      Zr     0.100480000000     0.009880000000     0.961440000000     1.39362    
Zr2      Zr     0.970940000000     0.035200000000     0.903110000000     1.37375    
Zr3      Zr     0.001490000000     0.916390000000     0.063530000000     1.38581    
Zr4      Zr     0.873150000000     0.944180000000     0.007790000000     1.38584    
Zr5      Zr     0.024600000000     0.061270000000     0.029780000000     1.3569     
Zr6      Zr     0.948370000000     0.892610000000     0.937570000000     1.36683    
Zr7      Zr     0.949090000000     0.874080000000     0.495000000000     1.35585    
Zr8      Zr     0.939410000000     0.987850000000     0.404100000000     1.37664    
Zr9      Zr     0.057180000000     0.984500000000     0.575410000000     1.38083    
Zr10     Zr     0.050970000000     0.098550000000     0.486630000000     1.38756    
Zr11     Zr     0.087430000000     0.996700000000     0.446230000000     1.36417    
Zr12     Zr     0.908760000000     0.976580000000     0.530770000000     1.36742    
Zr13     Zr     0.010410000000     0.413710000000     0.034320000000     1.38419    
Zr14     Zr     0.871960000000     0.416540000000     0.966500000000     1.38483    
Zr15     Zr     0.113050000000     0.555160000000     0.969910000000     1.38423    
Zr16     Zr     0.975010000000     0.559460000000     0.902050000000     1.38062    
Zr17     Zr     0.998090000000     0.435950000000     0.901670000000     1.35916    
Zr18     Zr     0.984820000000     0.535220000000     0.032460000000     1.37184    
Zr19     Zr     0.965160000000     0.426790000000     0.557030000000     1.38296    
Zr20     Zr     0.863610000000     0.438430000000     0.450180000000     1.39942    
Zr21     Zr     0.102510000000     0.542500000000     0.494730000000     1.36838    
Zr22     Zr     0.003090000000     0.552120000000     0.386070000000     1.38373    
Zr23     Zr     0.991600000000     0.414440000000     0.434680000000     1.35723    
Zr24     Zr     0.973140000000     0.565700000000     0.507900000000     1.35448    
Zr25     Zr     0.425910000000     0.983150000000     0.892690000000     1.38107    
Zr26     Zr     0.442710000000     0.874240000000     0.983780000000     1.38857    
Zr27     Zr     0.535590000000     0.096010000000     0.968980000000     1.35906    
Zr28     Zr     0.553960000000     0.988470000000     0.059410000000     1.38186    
Zr29     Zr     0.399600000000     0.973000000000     0.022130000000     1.34546    
Zr30     Zr     0.578730000000     0.994750000000     0.930970000000     1.34839    
Zr31     Zr     0.484390000000     0.049020000000     0.397490000000     1.36934    
Zr32     Zr     0.377220000000     0.961970000000     0.495860000000     1.40023    
Zr33     Zr     0.606980000000     0.017700000000     0.464850000000     1.37775    
Zr34     Zr     0.498880000000     0.929370000000     0.562850000000     1.37649    
Zr35     Zr     0.530470000000     0.074300000000     0.524130000000     1.3729     
Zr36     Zr     0.451790000000     0.903350000000     0.435300000000     1.35338    
Zr37     Zr     0.470520000000     0.424560000000     0.056040000000     1.37918    
Zr38     Zr     0.370550000000     0.430380000000     0.949020000000     1.39474    
Zr39     Zr     0.608310000000     0.537830000000     0.993600000000     1.38884    
Zr40     Zr     0.510040000000     0.546160000000     0.883610000000     1.37713    
Zr41     Zr     0.501480000000     0.409050000000     0.935530000000     1.35907    
Zr42     Zr     0.477520000000     0.562240000000     0.001830000000     1.35752    
Zr43     Zr     0.525180000000     0.429790000000     0.534470000000     1.39187    
Zr44     Zr     0.376860000000     0.420830000000     0.475550000000     1.37666    
Zr45     Zr     0.614460000000     0.567210000000     0.460320000000     1.38567    
Zr46     Zr     0.466640000000     0.560490000000     0.402620000000     1.38759    
Zr47     Zr     0.497590000000     0.442170000000     0.401920000000     1.36995    
Zr48     Zr     0.492920000000     0.547100000000     0.534180000000     1.37789    


