data_structure

_audit_creation_method RASPA-1.0
_audit_creation_date 2023-6-4
_audit_author_name 'Poobodin Mano'

_cell_length_a    42.7098
_cell_length_b    45.9838
_cell_length_c    46.4559
_cell_angle_alpha 82.7677
_cell_angle_beta  96.3219
_cell_angle_gamma 119.441
_cell_volume      78700.2

_symmetry_cell_setting          triclinic
_symmetry_space_group_name_Hall 'P 1'
_symmetry_space_group_name_H-M  'P 1'
_symmetry_Int_Tables_number     1

_symmetry_equiv_pos_as_xyz 'x,y,z'

loop_
_atom_site_label
_atom_site_type_symbol
_atom_site_fract_x
_atom_site_fract_y
_atom_site_fract_z
_atom_site_charge
C1       C      0.081530000000     0.069370000000     0.031020000000     0.398241   
C2       C      0.946790000000     0.979920000000     0.883360000000     0.397901   
C3       C      0.970790000000     0.073060000000     0.999500000000     0.396764   
C4       C      0.057980000000     0.977140000000     0.915920000000     0.40051    
C5       C      0.003620000000     0.887870000000     0.969470000000     0.407423   
C6       C      0.909230000000     0.975000000000     0.057110000000     0.400408   
C7       C      0.884480000000     0.886190000000     0.939680000000     0.402667   
C8       C      0.012670000000     0.971160000000     0.088430000000     0.396509   
C9       C      0.017180000000     0.906760000000     0.454030000000     0.402554   
C10      C      0.864040000000     0.963200000000     0.455850000000     0.392701   
C11      C      0.008810000000     0.976270000000     0.388370000000     0.398808   
C12      C      0.875250000000     0.890720000000     0.525370000000     0.381888   
C13      C      0.958610000000     0.985350000000     0.583670000000     0.394734   
C14      C      0.094420000000     0.073400000000     0.446560000000     0.39166    
C15      C      0.936480000000     0.054020000000     0.496370000000     0.402251   
C16      C      0.106650000000     0.007060000000     0.514580000000     0.394444   
C17      C      0.984180000000     0.379010000000     0.005360000000     0.40084    
C18      C      0.883330000000     0.500650000000     0.973870000000     0.403489   
C19      C      0.914580000000     0.378470000000     0.932130000000     0.390611   
C20      C      0.949270000000     0.488220000000     0.068780000000     0.403266   
C21      C      0.054070000000     0.586070000000     0.023760000000     0.382824   
C22      C      0.025090000000     0.479330000000     0.883690000000     0.398811   
C23      C      0.984640000000     0.586200000000     0.944600000000     0.396366   
C24      C      0.088860000000     0.469780000000     0.973920000000     0.400039   
C25      C      0.958920000000     0.367800000000     0.486010000000     0.391184   
C26      C      0.898500000000     0.505770000000     0.518830000000     0.396229   
C27      C      0.883590000000     0.384050000000     0.438180000000     0.401639   
C28      C      0.986660000000     0.485510000000     0.580550000000     0.397877   
C29      C      0.077830000000     0.576840000000     0.521420000000     0.393976   
C30      C      0.978820000000     0.480280000000     0.373410000000     0.396572   
C31      C      0.000250000000     0.595900000000     0.467680000000     0.399683   
C32      C      0.058830000000     0.463510000000     0.434180000000     0.377204   
C33      C      0.374910000000     0.982500000000     0.944060000000     0.397976   
C34      C      0.510030000000     0.900940000000     0.944120000000     0.393862   
C35      C      0.363160000000     0.895710000000     0.000430000000     0.389467   
C36      C      0.522400000000     0.997190000000     0.880610000000     0.391092   
C37      C      0.605600000000     0.068000000000     0.954600000000     0.387664   
C38      C      0.447880000000     0.966310000000     0.076240000000     0.395975   
C39      C      0.591790000000     0.974270000000     0.012470000000     0.393589   
C40      C      0.460560000000     0.061460000000     0.015880000000     0.392411   
C41      C      0.502930000000     0.091890000000     0.475530000000     0.404159   
C42      C      0.364080000000     0.888180000000     0.452730000000     0.399604   
C43      C      0.427760000000     0.014590000000     0.542580000000     0.39342    
C44      C      0.441200000000     0.968410000000     0.378030000000     0.398797   
C45      C      0.529650000000     0.949190000000     0.412530000000     0.378344   
C46      C      0.523770000000     0.990920000000     0.580310000000     0.396248   
C47      C      0.450730000000     0.863310000000     0.486130000000     0.407187   
C48      C      0.595610000000     0.070870000000     0.504110000000     0.397405   
C49      C      0.465090000000     0.367000000000     0.016670000000     0.393447   
C50      C      0.430630000000     0.523450000000     0.042620000000     0.396702   
C51      C      0.372540000000     0.379350000000     0.983620000000     0.405568   
C52      C      0.530060000000     0.510390000000     0.091710000000     0.391513   
C53      C      0.597640000000     0.580940000000     0.006580000000     0.400703   
C54      C      0.440760000000     0.451760000000     0.896800000000     0.40227    
C55      C      0.503280000000     0.593880000000     0.973000000000     0.392808   
C56      C      0.531280000000     0.443670000000     0.934090000000     0.37381    
C57      C      0.504120000000     0.392170000000     0.497490000000     0.401982   
C58      C      0.378870000000     0.476270000000     0.537060000000     0.39658    
C59      C      0.400300000000     0.383270000000     0.444340000000     0.390782   
C60      C      0.478940000000     0.479350000000     0.597250000000     0.39495    
C61      C      0.557060000000     0.584400000000     0.541150000000     0.393771   
C62      C      0.484480000000     0.491020000000     0.389090000000     0.400912   
C63      C      0.444660000000     0.568850000000     0.488050000000     0.404358   
C64      C      0.575590000000     0.495790000000     0.445700000000     0.387732   
C65      C      0.422790000000     0.464130000000     0.818320000000    -0.131214   
C66      C      0.480600000000     0.451700000000     0.643940000000     0.0679678  
C67      C      0.465080000000     0.495070000000     0.639210000000     0.0690062  
C68      C      0.474310000000     0.445770000000     0.673480000000    -0.0936317  
C69      C      0.477170000000     0.451800000000     0.738340000000    -0.0376689  
C70      C      0.469830000000     0.446170000000     0.767710000000    -0.0327029  
C71      C      0.454180000000     0.457480000000     0.717180000000    -0.00609147 
C72      C      0.458330000000     0.489630000000     0.668680000000    -0.093108   
C73      C      0.439260000000     0.445970000000     0.776520000000    -0.0138945  
C74      C      0.440600000000     0.421620000000     0.827880000000    -0.103      
C75      C      0.415740000000     0.450710000000     0.755230000000    -0.0329735  
C76      C      0.439730000000     0.422930000000     0.857620000000     0.0757007  
C77      C      0.421570000000     0.464710000000     0.848280000000     0.152459   
C78      C      0.423170000000     0.456490000000     0.725890000000    -0.0379738  
C79      C      0.462490000000     0.464460000000     0.686090000000     0.0476647  
C80      C      0.433570000000     0.443390000000     0.807920000000     0.0651002  
C81      C      0.406090000000     0.485220000000     0.857620000000    -0.217202   
C82      C      0.494640000000     0.524870000000     0.311780000000    -0.130364   
C83      C      0.542370000000     0.493860000000     0.140480000000     0.0688782  
C84      C      0.536690000000     0.542950000000     0.130390000000     0.068912   
C85      C      0.543300000000     0.495960000000     0.170290000000    -0.0928662  
C86      C      0.554830000000     0.513450000000     0.233430000000    -0.0383226  
C87      C      0.547100000000     0.509570000000     0.262600000000    -0.0332416  
C88      C      0.533360000000     0.520110000000     0.211400000000    -0.00623035 
C89      C      0.537090000000     0.545550000000     0.160070000000    -0.093559   
C90      C      0.517470000000     0.511870000000     0.270300000000    -0.0142311  
C91      C      0.511510000000     0.481810000000     0.320060000000    -0.102904   
C92      C      0.496300000000     0.518910000000     0.248150000000    -0.0330421  
C93      C      0.502450000000     0.476840000000     0.348860000000     0.0730137  
C94      C      0.484640000000     0.518930000000     0.340680000000     0.14785    
C95      C      0.504290000000     0.523160000000     0.219090000000    -0.0381133  
C96      C      0.539150000000     0.521220000000     0.180330000000     0.0474227  
C97      C      0.508140000000     0.506340000000     0.301190000000     0.0635357  
C98      C      0.466600000000     0.537880000000     0.348760000000    -0.217025   
C99      C      0.439750000000     0.779660000000     0.510510000000    -0.131363   
C100     C      0.417970000000     0.592420000000     0.512680000000     0.0715129  
C101     C      0.427370000000     0.607470000000     0.462470000000     0.0698115  
C102     C      0.402380000000     0.612600000000     0.513010000000    -0.0964058  
C103     C      0.400140000000     0.675040000000     0.516990000000    -0.0374988  
C104     C      0.401190000000     0.705540000000     0.518010000000    -0.0335879  
C105     C      0.394160000000     0.661010000000     0.490300000000    -0.00691073 
C106     C      0.414290000000     0.629910000000     0.462510000000    -0.0943304  
C107     C      0.398080000000     0.723650000000     0.492280000000    -0.0143056  
C108     C      0.395480000000     0.775540000000     0.472160000000    -0.105278   
C109     C      0.388080000000     0.708140000000     0.466080000000    -0.0332589  
C110     C      0.410500000000     0.810130000000     0.470190000000     0.0775668  
C111     C      0.454070000000     0.814480000000     0.508610000000     0.148785   
C112     C      0.385390000000     0.676800000000     0.465240000000    -0.0376608  
C113     C      0.402100000000     0.633230000000     0.488210000000     0.0479571  
C114     C      0.410280000000     0.759870000000     0.492260000000     0.0654313  
C115     C      0.488170000000     0.834200000000     0.527040000000    -0.213935   
C116     C      0.512560000000     0.176400000000     0.455540000000    -0.132776   
C117     C      0.515670000000     0.349820000000     0.523250000000     0.069833   
C118     C      0.515070000000     0.357040000000     0.471720000000     0.0725563  
C119     C      0.521440000000     0.322490000000     0.523160000000    -0.0945562  
C120     C      0.502580000000     0.251980000000     0.512200000000    -0.0379531  
C121     C      0.500400000000     0.221540000000     0.508300000000    -0.033058   
C122     C      0.525170000000     0.281100000000     0.495400000000    -0.0070475  
C123     C      0.520870000000     0.330070000000     0.470860000000    -0.0958787  
C124     C      0.520740000000     0.219740000000     0.487500000000    -0.0160935  
C125     C      0.519240000000     0.166820000000     0.507320000000    -0.108334   
C126     C      0.544050000000     0.248930000000     0.471190000000    -0.0334333  
C127     C      0.514710000000     0.135640000000     0.503640000000     0.0731806  
C128     C      0.508240000000     0.144630000000     0.452130000000     0.147668   
C129     C      0.546380000000     0.279460000000     0.475210000000    -0.038587   
C130     C      0.523510000000     0.312130000000     0.496680000000     0.0493522  
C131     C      0.517700000000     0.187310000000     0.483260000000     0.0659694  
C132     C      0.505280000000     0.135600000000     0.421340000000    -0.218056   
C133     C      0.556170000000     0.024240000000     0.652760000000    -0.130293   
C134     C      0.507080000000     0.002040000000     0.830110000000     0.0670404  
C135     C      0.559660000000     0.997790000000     0.845110000000     0.0663467  
C136     C      0.512070000000     0.001460000000     0.801160000000    -0.0933349  
C137     C      0.514820000000     0.971560000000     0.747560000000    -0.0382041  
C138     C      0.515620000000     0.970630000000     0.717780000000    -0.0329608  
C139     C      0.544500000000     0.995650000000     0.763050000000    -0.00637257 
C140     C      0.565770000000     0.997630000000     0.816030000000    -0.0928302  
C141     C      0.546040000000     0.993980000000     0.702650000000    -0.0144118  
C142     C      0.530700000000     0.964460000000     0.657290000000    -0.103828   
C143     C      0.576220000000     0.017580000000     0.718280000000    -0.0332945  
C144     C      0.525760000000     0.964550000000     0.627140000000     0.0728915  
C145     C      0.551230000000     0.023910000000     0.622250000000     0.149719   
C146     C      0.575560000000     0.018220000000     0.748320000000    -0.0383925  
C147     C      0.541240000000     0.998660000000     0.793830000000     0.0467637  
C148     C      0.545030000000     0.994350000000     0.670510000000     0.0638717  
C149     C      0.566830000000     0.057620000000     0.604740000000    -0.218973   
C150     C      0.419320000000     0.986450000000     0.300670000000    -0.130744   
C151     C      0.456270000000     0.950850000000     0.125970000000     0.0708333  
C152     C      0.417210000000     0.973740000000     0.112610000000     0.0690022  
C153     C      0.451790000000     0.950260000000     0.155250000000    -0.0933339  
C154     C      0.460380000000     0.972810000000     0.214120000000    -0.0375094  
C155     C      0.459080000000     0.972650000000     0.243970000000    -0.0333896  
C156     C      0.429660000000     0.965690000000     0.195370000000    -0.00599378 
C157     C      0.412740000000     0.974210000000     0.142050000000    -0.0914264  
C158     C      0.427340000000     0.966200000000     0.255880000000    -0.0144518  
C159     C      0.434520000000     0.942230000000     0.305570000000    -0.103573   
C160     C      0.396990000000     0.960660000000     0.237310000000    -0.0337322  
C161     C      0.437190000000     0.942960000000     0.335640000000     0.0751696  
C162     C      0.422420000000     0.987040000000     0.331160000000     0.147646   
C163     C      0.398050000000     0.960170000000     0.207280000000    -0.0377057  
C164     C      0.430980000000     0.963170000000     0.163840000000     0.0472884  
C165     C      0.426320000000     0.964590000000     0.287780000000     0.0643948  
C166     C      0.411860000000     0.009730000000     0.343500000000    -0.215999   
C167     C      0.526640000000     0.682280000000     0.979400000000    -0.129846   
C168     C      0.550450000000     0.880830000000     0.935910000000     0.0677658  
C169     C      0.487420000000     0.844540000000     0.933870000000     0.0693037  
C170     C      0.556320000000     0.853690000000     0.933420000000    -0.0916852  
C171     C      0.507630000000     0.764300000000     0.915450000000    -0.0381682  
C172     C      0.506560000000     0.733190000000     0.920340000000    -0.0334171  
C173     C      0.531370000000     0.790970000000     0.932200000000    -0.00607209 
C174     C      0.492240000000     0.817300000000     0.930900000000    -0.0932473  
C175     C      0.529370000000     0.727910000000     0.942020000000    -0.0137126  
C176     C      0.514800000000     0.670600000000     0.929390000000    -0.101422   
C177     C      0.554940000000     0.755320000000     0.957320000000    -0.0337278  
C178     C      0.507650000000     0.637740000000     0.937820000000     0.0686926  
C179     C      0.519100000000     0.648990000000     0.987620000000     0.148836   
C180     C      0.555910000000     0.786460000000     0.952480000000    -0.0379917  
C181     C      0.526910000000     0.821290000000     0.931400000000     0.0465365  
C182     C      0.524380000000     0.693420000000     0.950210000000     0.061722   
C183     C      0.519110000000     0.639060000000     0.020020000000    -0.220231   
C184     C      0.454550000000     0.286380000000     0.054500000000    -0.128204   
C185     C      0.484160000000     0.117210000000     0.028630000000     0.071644   
C186     C      0.421040000000     0.081430000000     0.026910000000     0.0673454  
C187     C      0.479880000000     0.144170000000     0.033830000000    -0.093594   
C188     C      0.465480000000     0.195240000000     0.055450000000    -0.0380258  
C189     C      0.466030000000     0.226050000000     0.054180000000    -0.0335112  
C190     C      0.441410000000     0.170390000000     0.037160000000    -0.00607822 
C191     C      0.415730000000     0.108300000000     0.031720000000    -0.0914604  
C192     C      0.442420000000     0.232890000000     0.034630000000    -0.0134266  
C193     C      0.442540000000     0.281620000000     0.003280000000    -0.101387   
C194     C      0.416940000000     0.207300000000     0.017510000000    -0.0335143  
C195     C      0.448370000000     0.314460000000     0.999650000000     0.070646   
C196     C      0.460070000000     0.319530000000     0.050530000000     0.144779   
C197     C      0.416420000000     0.176430000000     0.018790000000    -0.0376324  
C198     C      0.445440000000     0.140310000000     0.034830000000     0.0469104  
C199     C      0.446060000000     0.267200000000     0.030850000000     0.0614813  
C200     C      0.466480000000     0.336990000000     0.077840000000    -0.216545   
C201     C      0.664800000000     0.159190000000     0.510070000000    -0.13037    
C202     C      0.862560000000     0.326240000000     0.432830000000     0.0712009  
C203     C      0.821650000000     0.344870000000     0.440880000000     0.0716808  
C204     C      0.836600000000     0.292930000000     0.439930000000    -0.093018   
C205     C      0.765460000000     0.223840000000     0.448240000000    -0.0379578  
C206     C      0.738670000000     0.193170000000     0.460050000000    -0.0332221  
C207     C      0.778020000000     0.252850000000     0.462680000000    -0.00664985 
C208     C      0.795300000000     0.312210000000     0.447940000000    -0.096368   
C209     C      0.724360000000     0.190930000000     0.486720000000    -0.0140617  
C210     C      0.690230000000     0.128410000000     0.493440000000    -0.103597   
C211     C      0.738440000000     0.219820000000     0.501760000000    -0.0335713  
C212     C      0.658100000000     0.099090000000     0.498450000000     0.0744703  
C213     C      0.632630000000     0.129080000000     0.515590000000     0.14717    
C214     C      0.764850000000     0.250450000000     0.489800000000    -0.0377515  
C215     C      0.803370000000     0.286120000000     0.449260000000     0.0489884  
C216     C      0.693170000000     0.159140000000     0.497550000000     0.0632943  
C217     C      0.602940000000     0.131730000000     0.528060000000    -0.221116   
C218     C      0.269250000000     0.828910000000     0.462110000000    -0.131753   
C219     C      0.140670000000     0.613690000000     0.523690000000     0.0707253  
C220     C      0.100650000000     0.634710000000     0.527460000000     0.0681611  
C221     C      0.168590000000     0.645890000000     0.517480000000    -0.0956324  
C222     C      0.203920000000     0.706250000000     0.474860000000    -0.0375194  
C223     C      0.229540000000     0.736540000000     0.461680000000    -0.0333892  
C224     C      0.188510000000     0.705470000000     0.500380000000    -0.00634526 
C225     C      0.128140000000     0.667520000000     0.521120000000    -0.0923975  
C226     C      0.240580000000     0.766790000000     0.473850000000    -0.0135978  
C227     C      0.299520000000     0.800300000000     0.449580000000    -0.102465   
C228     C      0.224640000000     0.765980000000     0.499190000000    -0.0326431  
C229     C      0.329430000000     0.831310000000     0.442730000000     0.0750512  
C230     C      0.299720000000     0.859670000000     0.455320000000     0.153468   
C231     C      0.198640000000     0.735650000000     0.512180000000    -0.0378429  
C232     C      0.161810000000     0.672940000000     0.514140000000     0.0478264  
C233     C      0.269840000000     0.798920000000     0.461220000000     0.0646457  
C234     C      0.296560000000     0.891090000000     0.454920000000    -0.217462   
C235     C      0.674090000000     0.536840000000     0.452550000000    -0.131083   
C236     C      0.839570000000     0.486970000000     0.532360000000     0.0720114  
C237     C      0.877990000000     0.545030000000     0.521430000000     0.0692718  
C238     C      0.809540000000     0.491560000000     0.529720000000    -0.0937011  
C239     C      0.748390000000     0.507010000000     0.524270000000    -0.038695   
C240     C      0.715660000000     0.502980000000     0.511020000000    -0.032868   
C241     C      0.780440000000     0.525690000000     0.509610000000    -0.00600405 
C242     C      0.848110000000     0.550480000000     0.517730000000    -0.0916771  
C243     C      0.714140000000     0.517640000000     0.482820000000    -0.0140254  
C244     C      0.649060000000     0.478770000000     0.470000000000    -0.102165   
C245     C      0.746470000000     0.538080000000     0.468870000000    -0.0331979  
C246     C      0.615070000000     0.473550000000     0.459060000000     0.0725305  
C247     C      0.639610000000     0.530900000000     0.441530000000     0.152135   
C248     C      0.779280000000     0.542040000000     0.482110000000    -0.0378598  
C249     C      0.813200000000     0.523160000000     0.520420000000     0.0472795  
C250     C      0.678740000000     0.511040000000     0.468130000000     0.0650335  
C251     C      0.636870000000     0.558970000000     0.422700000000    -0.22196    
C252     C      0.123800000000     0.436110000000     0.467380000000    -0.127585   
C253     C      0.316140000000     0.446680000000     0.543460000000     0.072984   
C254     C      0.347750000000     0.505650000000     0.544410000000     0.0701184  
C255     C      0.283390000000     0.446700000000     0.538870000000    -0.0936576  
C256     C      0.253130000000     0.498520000000     0.494760000000    -0.0375986  
C257     C      0.222270000000     0.495140000000     0.478300000000    -0.0331422  
C258     C      0.250330000000     0.477740000000     0.520330000000    -0.00573712 
C259     C      0.315400000000     0.506790000000     0.538880000000    -0.0930092  
C260     C      0.187720000000     0.471160000000     0.487190000000    -0.0135513  
C261     C      0.153750000000     0.495430000000     0.454890000000    -0.102259   
C262     C      0.184990000000     0.451190000000     0.513390000000    -0.0323934  
C263     C      0.121910000000     0.492240000000     0.440750000000     0.0724466  
C264     C      0.091710000000     0.433430000000     0.452970000000     0.147385   
C265     C      0.215930000000     0.454280000000     0.529660000000    -0.0386546  
C266     C      0.283010000000     0.477150000000     0.534310000000     0.0479548  
C267     C      0.154730000000     0.467460000000     0.469540000000     0.0645017  
C268     C      0.059660000000     0.398630000000     0.451760000000    -0.219976   
C269     C      0.024090000000     0.450150000000     0.812800000000    -0.128957   
C270     C      0.001930000000     0.514250000000     0.623840000000     0.0738233  
C271     C      0.984760000000     0.456500000000     0.626920000000     0.0701272  
C272     C      0.008870000000     0.514530000000     0.654060000000    -0.0948474  
C273     C      0.043890000000     0.509020000000     0.714850000000    -0.0374798  
C274     C      0.052000000000     0.507120000000     0.744800000000    -0.0342304  
C275     C      0.011500000000     0.484280000000     0.702680000000    -0.00421231 
C276     C      0.990980000000     0.455830000000     0.656900000000    -0.100191   
C277     C      0.027740000000     0.480560000000     0.763180000000    -0.01002    
C278     C      0.047830000000     0.509720000000     0.808760000000    -0.103113   
C279     C      0.995410000000     0.455800000000     0.750870000000    -0.0374927  
C280     C      0.047470000000     0.508550000000     0.838710000000     0.0712146  
C281     C      0.024230000000     0.449490000000     0.843260000000     0.146059   
C282     C      0.987420000000     0.457630000000     0.720990000000    -0.0408097  
C283     C      0.003560000000     0.485040000000     0.670830000000     0.0529809  
C284     C      0.034220000000     0.480160000000     0.795270000000     0.0620633  
C285     C      0.012600000000     0.415920000000     0.860450000000    -0.214033   
C286     C      0.954750000000     0.517880000000     0.140570000000    -0.130471   
C287     C      0.964680000000     0.451920000000     0.330090000000     0.068113   
C288     C      0.984820000000     0.510250000000     0.326950000000     0.0679316  
C289     C      0.958970000000     0.451950000000     0.299810000000    -0.0926945  
C290     C      0.966440000000     0.463380000000     0.234360000000    -0.0380068  
C291     C      0.960760000000     0.464900000000     0.204180000000    -0.0331008  
C292     C      0.958910000000     0.482610000000     0.250770000000    -0.00625508 
C293     C      0.979740000000     0.511220000000     0.296830000000    -0.0935518  
C294     C      0.947490000000     0.485720000000     0.189660000000    -0.0145949  
C295     C      0.926400000000     0.457860000000     0.143610000000    -0.1051     
C296     C      0.939880000000     0.504940000000     0.205960000000    -0.0335228  
C297     C      0.926730000000     0.459360000000     0.113660000000     0.0730727  
C298     C      0.954760000000     0.518930000000     0.110040000000     0.149266   
C299     C      0.945320000000     0.503250000000     0.236230000000    -0.0381654  
C300     C      0.965930000000     0.481800000000     0.282850000000     0.0469718  
C301     C      0.942150000000     0.487280000000     0.157540000000     0.0642089  
C302     C      0.971040000000     0.553150000000     0.093430000000    -0.220314   
C303     C      0.695840000000     0.121300000000     0.923680000000    -0.127524   
C304     C      0.857520000000     0.336190000000     0.914950000000     0.0675245  
C305     C      0.901200000000     0.320940000000     0.935420000000     0.0653521  
C306     C      0.831410000000     0.302530000000     0.913840000000    -0.0920456  
C307     C      0.803340000000     0.223080000000     0.955250000000    -0.038137   
C308     C      0.771800000000     0.192180000000     0.959240000000    -0.0341051  
C309     C      0.809830000000     0.241650000000     0.928030000000    -0.00611232 
C310     C      0.875150000000     0.286720000000     0.935570000000    -0.0902327  
C311     C      0.746300000000     0.178690000000     0.935960000000    -0.0135091  
C312     C      0.689730000000     0.147090000000     0.962820000000    -0.101594   
C313     C      0.753840000000     0.196320000000     0.908360000000    -0.0337532  
C314     C      0.655190000000     0.120060000000     0.966460000000     0.0709218  
C315     C      0.660950000000     0.093640000000     0.928070000000     0.14676    
C316     C      0.785000000000     0.227570000000     0.904510000000    -0.0385758  
C317     C      0.839520000000     0.277200000000     0.925160000000     0.0446953  
C318     C      0.710480000000     0.148310000000     0.941090000000     0.061169   
C319     C      0.646660000000     0.066520000000     0.907230000000    -0.219953   
C320     C      0.095540000000     0.678480000000     0.025820000000    -0.127511   
C321     C      0.314330000000     0.841890000000     0.990520000000     0.0704897  
C322     C      0.308040000000     0.871810000000     0.025350000000     0.0668294  
C323     C      0.280130000000     0.814820000000     0.995590000000    -0.0930808  
C324     C      0.196800000000     0.772950000000     0.000780000000    -0.0382123  
C325     C      0.165660000000     0.741840000000     0.005140000000    -0.033906   
C326     C      0.224170000000     0.785360000000     0.022940000000    -0.00666881 
C327     C      0.273860000000     0.844460000000     0.031640000000    -0.0910806  
C328     C      0.161490000000     0.721920000000     0.031550000000    -0.0134522  
C329     C      0.138350000000     0.660270000000     0.043520000000    -0.10099    
C330     C      0.188400000000     0.734840000000     0.054040000000    -0.0342484  
C331     C      0.111200000000     0.627070000000     0.041670000000     0.0699224  
C332     C      0.068040000000     0.644600000000     0.025010000000     0.144984   
C333     C      0.219200000000     0.766350000000     0.049880000000    -0.0379713  
C334     C      0.259590000000     0.815530000000     0.016610000000     0.046311   
C335     C      0.131210000000     0.686580000000     0.034310000000     0.060391   
C336     C      0.030550000000     0.638600000000     0.015400000000    -0.222256   
C337     C      0.797340000000     0.492910000000     0.944730000000    -0.13571    
C338     C      0.568280000000     0.418330000000     0.949170000000     0.0697084  
C339     C      0.592260000000     0.471630000000     0.922710000000     0.06798    
C340     C      0.603080000000     0.422850000000     0.956160000000    -0.0911263  
C341     C      0.694060000000     0.492010000000     0.968610000000    -0.036569   
C342     C      0.730380000000     0.501270000000     0.974820000000    -0.0350959  
C343     C      0.670120000000     0.461040000000     0.957390000000    -0.00756551 
C344     C      0.627170000000     0.477100000000     0.929410000000    -0.0947977  
C345     C      0.743280000000     0.479830000000     0.969540000000    -0.0152995  
C346     C      0.804490000000     0.501220000000     0.995640000000    -0.104813   
C347     C      0.719030000000     0.448200000000     0.959730000000    -0.0337183  
C348     C      0.840270000000     0.507880000000     0.995730000000     0.0728682  
C349     C      0.833230000000     0.500350000000     0.945200000000     0.154801   
C350     C      0.682650000000     0.438750000000     0.953920000000    -0.038126   
C351     C      0.632930000000     0.453300000000     0.947470000000     0.0504696  
C352     C      0.782310000000     0.491720000000     0.970250000000     0.0654858  
C353     C      0.848770000000     0.504260000000     0.916300000000    -0.220416   
C354     C      0.176900000000     0.480700000000     0.000130000000    -0.133983   
C355     C      0.401570000000     0.551770000000     0.014940000000     0.0746445  
C356     C      0.368980000000     0.504210000000     0.047310000000     0.0694744  
C357     C      0.369230000000     0.548850000000     0.001350000000    -0.0928307  
C358     C      0.278460000000     0.481260000000     0.985950000000    -0.0369791  
C359     C      0.242860000000     0.471650000000     0.976190000000    -0.0356658  
C360     C      0.301800000000     0.514080000000     0.993790000000    -0.0084633  
C361     C      0.336490000000     0.500530000000     0.034350000000    -0.0975916  
C362     C      0.230150000000     0.494710000000     0.974210000000    -0.015399   
C363     C      0.168250000000     0.472790000000     0.949050000000    -0.104544   
C364     C      0.254220000000     0.528190000000     0.979730000000    -0.0340018  
C365     C      0.132140000000     0.464840000000     0.950100000000     0.0725158  
C366     C      0.140820000000     0.472220000000     0.000760000000     0.14898    
C367     C      0.289970000000     0.537910000000     0.989240000000    -0.0383115  
C368     C      0.336390000000     0.521700000000     0.010040000000     0.0517598  
C369     C      0.191170000000     0.482510000000     0.974040000000     0.0643164  
C370     C      0.126300000000     0.467960000000     0.030200000000    -0.215693   
C371     C      0.607360000000     0.675180000000     0.547660000000    -0.125351   
C372     C      0.834280000000     0.832440000000     0.523970000000     0.0626702  
C373     C      0.817720000000     0.865370000000     0.547150000000     0.0613275  
C374     C      0.801440000000     0.803960000000     0.529580000000    -0.0905285  
C375     C      0.740790000000     0.742680000000     0.556020000000    -0.0383057  
C376     C      0.708610000000     0.712540000000     0.558800000000    -0.0336041  
C377     C      0.741230000000     0.773720000000     0.551800000000    -0.00534193 
C378     C      0.784390000000     0.836820000000     0.553690000000    -0.0901685  
C379     C      0.675200000000     0.711840000000     0.558790000000    -0.0124548  
C380     C      0.641130000000     0.649010000000     0.571160000000    -0.10113    
C381     C      0.675720000000     0.743060000000     0.556130000000    -0.0337955  
C382     C      0.611670000000     0.617760000000     0.566230000000     0.0754821  
C383     C      0.577000000000     0.643040000000     0.544420000000     0.144796   
C384     C      0.708200000000     0.773510000000     0.552510000000    -0.0385285  
C385     C      0.775910000000     0.805340000000     0.545070000000     0.0428864  
C386     C      0.640610000000     0.678580000000     0.559900000000     0.0592598  
C387     C      0.542850000000     0.641100000000     0.529380000000    -0.219584   
C388     C      0.190510000000     0.126970000000     0.427390000000    -0.128358   
C389     C      0.340160000000     0.345270000000     0.429980000000     0.068768   
C390     C      0.385460000000     0.330500000000     0.426860000000     0.0669789  
C391     C      0.313300000000     0.313450000000     0.423450000000    -0.0915984  
C392     C      0.260750000000     0.248030000000     0.399320000000    -0.0383411  
C393     C      0.229450000000     0.216870000000     0.401140000000    -0.0338179  
C394     C      0.292130000000     0.253610000000     0.416590000000    -0.00564014 
C395     C      0.358780000000     0.297640000000     0.420940000000    -0.0898123  
C396     C      0.228560000000     0.190180000000     0.420150000000    -0.013634   
C397     C      0.162770000000     0.160890000000     0.429300000000    -0.102038   
C398     C      0.260700000000     0.194870000000     0.435800000000    -0.0335121  
C399     C      0.130460000000     0.131980000000     0.435720000000     0.0699517  
C400     C      0.157370000000     0.097760000000     0.433530000000     0.147685   
C401     C      0.292140000000     0.226270000000     0.434070000000    -0.0379614  
C402     C      0.322050000000     0.288660000000     0.419690000000     0.0454564  
C403     C      0.193530000000     0.158850000000     0.425380000000     0.0614747  
C404     C      0.157510000000     0.064710000000     0.435970000000    -0.222161   
C405     C      0.766230000000     0.931380000000     0.457610000000    -0.129728   
C406     C      0.587540000000     0.969970000000     0.394750000000     0.0659558  
C407     C      0.555340000000     0.913240000000     0.413530000000     0.0603024  
C408     C      0.618680000000     0.967390000000     0.394130000000    -0.0933781  
C409     C      0.675360000000     0.942390000000     0.388880000000    -0.0383708  
C410     C      0.709460000000     0.944980000000     0.395380000000    -0.0333463  
C411     C      0.653360000000     0.937580000000     0.411280000000    -0.00677389 
C412     C      0.586400000000     0.910080000000     0.414020000000    -0.0955449  
C413     C      0.722650000000     0.943720000000     0.424480000000    -0.0134585  
C414     C      0.788050000000     0.966730000000     0.413780000000    -0.10161    
C415     C      0.700330000000     0.939230000000     0.446740000000    -0.0333668  
C416     C      0.822320000000     0.970490000000     0.421870000000     0.0722314  
C417     C      0.800950000000     0.935910000000     0.465600000000     0.149954   
C418     C      0.666030000000     0.935770000000     0.440210000000    -0.0381134  
C419     C      0.618730000000     0.937730000000     0.405130000000     0.0445245  
C420     C      0.759410000000     0.947330000000     0.431900000000     0.0623868  
C421     C      0.804820000000     0.915100000000     0.492270000000    -0.219299   
C422     C      0.196710000000     0.040380000000     0.554160000000    -0.129551   
C423     C      0.378600000000     0.004680000000     0.568690000000     0.0685873  
C424     C      0.415740000000     0.059150000000     0.547040000000     0.0663575  
C425     C      0.351850000000     0.012760000000     0.571900000000    -0.0933455  
C426     C      0.313520000000     0.058400000000     0.527990000000    -0.0386607  
C427     C      0.279060000000     0.054890000000     0.521660000000    -0.0338794  
C428     C      0.323130000000     0.048200000000     0.555800000000    -0.00635434 
C429     C      0.388810000000     0.067840000000     0.549040000000    -0.0924707  
C430     C      0.253540000000     0.041360000000     0.543060000000    -0.0143512  
C431     C      0.197540000000     0.018860000000     0.510090000000    -0.102861   
C432     C      0.264020000000     0.033300000000     0.571380000000    -0.0334274  
C433     C      0.161480000000     0.010410000000     0.503930000000     0.0682267  
C434     C      0.160480000000     0.032340000000     0.547370000000     0.14743    
C435     C      0.298360000000     0.036570000000     0.577640000000    -0.0386021  
C436     C      0.355660000000     0.043820000000     0.560240000000     0.0454476  
C437     C      0.215560000000     0.033760000000     0.535550000000     0.0623051  
C438     C      0.143910000000     0.043680000000     0.567670000000    -0.216235   
C439     C      0.999300000000     0.826210000000     0.433000000000    -0.139605   
C440     C      0.014840000000     0.647290000000     0.438720000000     0.0681068  
C441     C      0.009520000000     0.644130000000     0.489400000000     0.0697578  
C442     C      0.022460000000     0.680750000000     0.435870000000    -0.0923864  
C443     C      0.054140000000     0.756730000000     0.440480000000    -0.0383141  
C444     C      0.056550000000     0.788530000000     0.436690000000    -0.0325768  
C445     C      0.027250000000     0.730340000000     0.457210000000    -0.00713947 
C446     C      0.016660000000     0.677390000000     0.487250000000    -0.0935732  
C447     C      0.031640000000     0.794120000000     0.449090000000    -0.0170681  
C448     C      0.061000000000     0.856700000000     0.450930000000    -0.105292   
C449     C      0.005240000000     0.767890000000     0.466160000000    -0.0290099  
C450     C      0.056830000000     0.885120000000     0.451050000000     0.0737467  
C451     C      0.995970000000     0.854990000000     0.432910000000     0.155964   
C452     C      0.003180000000     0.736460000000     0.470300000000    -0.0348505  
C453     C      0.022910000000     0.696020000000     0.460230000000     0.0479081  
C454     C      0.031250000000     0.826380000000     0.443550000000     0.0704648  
C455     C      0.961740000000     0.853970000000     0.419000000000    -0.223528   
C456     C      0.917790000000     0.122010000000     0.470140000000    -0.133151   
C457     C      0.944990000000     0.316390000000     0.514860000000     0.0664048  
C458     C      0.949110000000     0.319630000000     0.464000000000     0.0666942  
C459     C      0.937720000000     0.282980000000     0.517520000000    -0.0922548  
C460     C      0.906120000000     0.206970000000     0.513020000000    -0.0380258  
C461     C      0.901150000000     0.174300000000     0.513980000000    -0.0333995  
C462     C      0.931710000000     0.233160000000     0.495190000000    -0.00644628 
C463     C      0.941970000000     0.286420000000     0.465900000000    -0.0940316  
C464     C      0.921660000000     0.167310000000     0.497080000000    -0.0140722  
C465     C      0.912770000000     0.111670000000     0.521920000000    -0.101738   
C466     C      0.947940000000     0.193830000000     0.480060000000    -0.0333001  
C467     C      0.915220000000     0.082460000000     0.520870000000     0.0749241  
C468     C      0.920500000000     0.092990000000     0.469690000000     0.155033   
C469     C      0.952840000000     0.226190000000     0.479090000000    -0.0385786  
C470     C      0.936670000000     0.267750000000     0.492900000000     0.0460927  
C471     C      0.916320000000     0.132840000000     0.496510000000     0.0644565  
C472     C      0.920950000000     0.082090000000     0.440380000000    -0.220562   
C473     C      0.921030000000     0.954740000000     0.808260000000    -0.131443   
C474     C      0.919480000000     0.981240000000     0.619070000000     0.0680997  
C475     C      0.979850000000     0.994700000000     0.633040000000     0.0639137  
C476     C      0.913260000000     0.982690000000     0.647740000000    -0.0923561  
C477     C      0.905230000000     0.965640000000     0.713910000000    -0.0382931  
C478     C      0.902440000000     0.964340000000     0.743850000000    -0.0333257  
C479     C      0.935480000000     0.991600000000     0.700190000000    -0.00624036 
C480     C      0.974680000000     0.996720000000     0.661660000000    -0.0926957  
C481     C      0.929700000000     0.989140000000     0.760620000000    -0.0145077  
C482     C      0.939510000000     0.013130000000     0.808620000000    -0.10388    
C483     C      0.958950000000     0.016040000000     0.746560000000    -0.0332963  
C484     C      0.942890000000     0.009900000000     0.838950000000     0.0732888  
C485     C      0.924360000000     0.951910000000     0.838790000000     0.150379   
C486     C      0.961860000000     0.017200000000     0.716720000000    -0.03845    
C487     C      0.941130000000     0.990640000000     0.669390000000     0.0463775  
C488     C      0.929440000000     0.985580000000     0.792890000000     0.0639377  
C489     C      0.911230000000     0.916920000000     0.853630000000    -0.218098   
C490     C      0.023840000000     0.940840000000     0.165060000000    -0.12917    
C491     C      0.985910000000     0.962130000000     0.340110000000     0.0679188  
C492     C      0.047960000000     0.981520000000     0.352470000000     0.0702395  
C493     C      0.990560000000     0.959290000000     0.311600000000    -0.0992446  
C494     C      0.056650000000     0.994170000000     0.256780000000    -0.0366156  
C495     C      0.057850000000     0.994390000000     0.226740000000    -0.0335836  
C496     C      0.029590000000     0.966580000000     0.272250000000    -0.00884813 
C497     C      0.053670000000     0.979470000000     0.323810000000    -0.0947574  
C498     C      0.032270000000     0.966860000000     0.211690000000    -0.014582   
C499     C      0.032920000000     0.996770000000     0.162800000000    -0.102317   
C500     C      0.006420000000     0.938600000000     0.227500000000    -0.0302873  
C501     C      0.027420000000     0.996790000000     0.132690000000     0.073072   
C502     C      0.018430000000     0.941220000000     0.134530000000     0.146232   
C503     C      0.005030000000     0.938520000000     0.257400000000    -0.0336715  
C504     C      0.024700000000     0.968170000000     0.303050000000     0.0530739  
C505     C      0.030540000000     0.968430000000     0.179420000000     0.0639302  
C506     C      0.009410000000     0.909230000000     0.121450000000    -0.211658   
C507     C      0.827010000000     0.799470000000     0.922520000000    -0.131376   
C508     C      0.658870000000     0.612420000000     0.995380000000     0.0719069  
C509     C      0.629180000000     0.640110000000     0.009320000000     0.0701708  
C510     C      0.687830000000     0.642810000000     0.986350000000    -0.0971275  
C511     C      0.703860000000     0.724270000000     0.953630000000    -0.0380036  
C512     C      0.729700000000     0.753010000000     0.938710000000    -0.0336626  
C513     C      0.714170000000     0.703900000000     0.972800000000    -0.00725662 
C514     C      0.657610000000     0.671150000000     0.999970000000    -0.0950769  
C515     C      0.766370000000     0.762020000000     0.942820000000    -0.0143878  
C516     C      0.791380000000     0.823570000000     0.933380000000    -0.10431    
C517     C      0.776490000000     0.741230000000     0.961630000000    -0.0328726  
C518     C      0.821820000000     0.854850000000     0.931880000000     0.0759535  
C519     C      0.857470000000     0.831560000000     0.920720000000     0.147267   
C520     C      0.750670000000     0.712470000000     0.976410000000    -0.038284   
C521     C      0.686610000000     0.672460000000     0.987230000000     0.0488237  
C522     C      0.794530000000     0.795180000000     0.931240000000     0.0644237  
C523     C      0.892230000000     0.834090000000     0.912960000000    -0.219428   
C524     C      0.281200000000     0.314690000000     0.000360000000    -0.132528   
C525     C      0.143930000000     0.098520000000     0.042070000000     0.0722105  
C526     C      0.107950000000     0.122750000000     0.049630000000     0.0696806  
C527     C      0.174940000000     0.129220000000     0.043520000000    -0.0956619  
C528     C      0.219500000000     0.193560000000     0.010080000000    -0.0371689  
C529     C      0.246440000000     0.224390000000     0.999240000000    -0.0335371  
C530     C      0.202020000000     0.190890000000     0.035040000000    -0.00652916 
C531     C      0.138600000000     0.154410000000     0.050220000000    -0.0929642  
C532     C      0.256530000000     0.253350000000     0.013050000000    -0.0144985  
C533     C      0.316070000000     0.289160000000     0.990850000000    -0.103813   
C534     C      0.239150000000     0.250810000000     0.038070000000    -0.0331567  
C535     C      0.343800000000     0.320710000000     0.982160000000     0.0758736  
C536     C      0.309300000000     0.346120000000     0.991330000000     0.149956   
C537     C      0.211950000000     0.219820000000     0.048900000000    -0.0385564  
C538     C      0.172070000000     0.157990000000     0.044800000000     0.0484116  
C539     C      0.285010000000     0.286140000000     0.001290000000     0.0651117  
C540     C      0.302140000000     0.375540000000     0.988280000000    -0.213589   
C541     C      0.823470000000     0.946970000000     0.086510000000    -0.13432    
C542     C      0.646940000000     0.976440000000     0.003710000000     0.0698587  
C543     C      0.632280000000     0.973970000000     0.052070000000     0.0673845  
C544     C      0.679280000000     0.977120000000     0.013830000000    -0.0938276  
C545     C      0.730210000000     0.953200000000     0.044740000000    -0.0385662  
C546     C      0.762140000000     0.952960000000     0.054270000000    -0.0331205  
C547     C      0.722000000000     0.976060000000     0.054700000000    -0.00653739 
C548     C      0.664680000000     0.975170000000     0.062870000000    -0.0932328  
C549     C      0.786800000000     0.975760000000     0.073850000000    -0.0146706  
C550     C      0.854300000000     0.007020000000     0.077630000000    -0.10302    
C551     C      0.778540000000     0.998540000000     0.084070000000    -0.0335623  
C552     C      0.886010000000     0.006110000000     0.074540000000     0.0722669  
C553     C      0.855490000000     0.946790000000     0.083100000000     0.154061   
C554     C      0.746130000000     0.998430000000     0.074800000000    -0.0380832  
C555     C      0.688410000000     0.976520000000     0.043680000000     0.0477486  
C556     C      0.822030000000     0.976890000000     0.081100000000     0.064237   
C557     C      0.855760000000     0.913820000000     0.088900000000    -0.220426   
C558     C      0.105350000000     0.943100000000     0.881740000000    -0.1329     
C559     C      0.315500000000     0.970980000000     0.952220000000     0.0703793  
C560     C      0.334470000000     0.981940000000     0.904090000000     0.0685049  
C561     C      0.281460000000     0.966010000000     0.941730000000    -0.0929557  
C562     C      0.236550000000     0.989920000000     0.879590000000    -0.0380058  
C563     C      0.203840000000     0.989710000000     0.872260000000    -0.0336316  
C564     C      0.238410000000     0.965840000000     0.900500000000    -0.00638567 
C565     C      0.300830000000     0.977450000000     0.892910000000    -0.0930254  
C566     C      0.172360000000     0.965270000000     0.885550000000    -0.0148311  
C567     C      0.144840000000     0.000860000000     0.890010000000    -0.104921   
C568     C      0.173710000000     0.939630000000     0.904670000000    -0.0330814  
C569     C      0.115560000000     0.003150000000     0.897350000000     0.0751187  
C570     C      0.075770000000     0.946370000000     0.888200000000     0.152975   
C571     C      0.206480000000     0.940010000000     0.912180000000    -0.0381559  
C572     C      0.273820000000     0.969280000000     0.911770000000     0.0476859  
C573     C      0.140320000000     0.969990000000     0.884250000000     0.0649868  
C574     C      0.038750000000     0.916540000000     0.884350000000    -0.226323   
C575     C      0.045820000000     0.834050000000     0.971540000000    -0.134586   
C576     C      0.968380000000     0.626390000000     0.953620000000     0.0682391  
C577     C      0.010140000000     0.639760000000     0.917870000000     0.0710463  
C578     C      0.976490000000     0.659590000000     0.952510000000    -0.103332   
C579     C      0.023540000000     0.730890000000     0.965410000000    -0.0371712  
C580     C      0.029130000000     0.762660000000     0.969030000000    -0.0333714  
C581     C      0.015910000000     0.719330000000     0.937590000000    -0.00923037 
C582     C      0.019030000000     0.673490000000     0.916240000000    -0.0971807  
C583     C      0.027350000000     0.783500000000     0.944850000000    -0.0163504  
C584     C      0.999100000000     0.819880000000     0.933470000000    -0.111883   
C585     C      0.022860000000     0.773000000000     0.916770000000    -0.0331003  
C586     C      0.993260000000     0.845140000000     0.940550000000     0.0678539  
C587     C      0.039750000000     0.859760000000     0.978250000000     0.149259   
C588     C      0.017180000000     0.741030000000     0.913160000000    -0.0375785  
C589     C      0.003400000000     0.683710000000     0.934870000000     0.0534261  
C590     C      0.025040000000     0.813600000000     0.949380000000     0.0688353  
C591     C      0.065530000000     0.882600000000     0.000740000000    -0.218768   
C592     C      0.005340000000     0.310330000000     0.009610000000    -0.129156   
C593     C      0.974150000000     0.110460000000     0.032210000000     0.0698896  
C594     C      0.954860000000     0.115570000000     0.982840000000     0.0680426  
C595     C      0.971620000000     0.138170000000     0.037890000000    -0.0954252  
C596     C      0.934050000000     0.193390000000     0.009670000000    -0.038308   
C597     C      0.937240000000     0.224730000000     0.011930000000    -0.0338621  
C598     C      0.962210000000     0.186850000000     0.020420000000    -0.00622646 
C599     C      0.951850000000     0.143360000000     0.987840000000    -0.0938601  
C600     C      0.968810000000     0.249950000000     0.024610000000    -0.0135813  
C601     C      0.949830000000     0.291600000000     0.032360000000    -0.104642   
C602     C      0.996310000000     0.242980000000     0.036350000000    -0.0377276  
C603     C      0.955030000000     0.324160000000     0.028000000000     0.0739799  
C604     C      0.009940000000     0.342820000000     0.005220000000     0.152755   
C605     C      0.992970000000     0.211620000000     0.034390000000    -0.0413421  
C606     C      0.960940000000     0.155230000000     0.015500000000     0.0478148  
C607     C      0.974820000000     0.284470000000     0.022590000000     0.0607436  
C608     C      0.045170000000     0.370210000000     0.993370000000    -0.217761   
H1       H      0.014740000000     0.011710000000     0.918880000000     0.201622   
H2       H      0.925200000000     0.002840000000     0.998240000000     0.195605   
H3       H      0.938780000000     0.892670000000     0.988960000000     0.201568   
H4       H      0.052880000000     0.000300000000     0.034620000000     0.197245   
H5       H      0.889890000000     0.999760000000     0.937430000000     0.129925   
H6       H      0.853920000000     0.956310000000     0.982690000000     0.185668   
H7       H      0.890700000000     0.885570000000     0.044800000000     0.13387    
H8       H      0.946500000000     0.877040000000     0.059750000000     0.190184   
H9       H      0.075490000000     0.951660000000     0.031440000000     0.124689   
H10      H      0.116820000000     0.006610000000     0.994280000000     0.186219   
H11      H      0.080060000000     0.087890000000     0.954420000000     0.143354   
H12      H      0.001040000000     0.072130000000     0.898150000000     0.200503   
H13      H      0.967720000000     0.861310000000     0.044030000000     0.195425   
H14      H      0.134610000000     0.043810000000     0.974840000000     0.200875   
H15      H      0.017390000000     0.092040000000     0.928560000000     0.201819   
H16      H      0.832400000000     0.915170000000     0.992700000000     0.200568   
H17      H      0.899000000000     0.923820000000     0.472020000000     0.193027   
H18      H      0.015570000000     0.029310000000     0.422510000000     0.1943     
H19      H      0.991610000000     0.033430000000     0.534590000000     0.197626   
H20      H      0.033140000000     0.943650000000     0.511600000000     0.198666   
H21      H      0.941680000000     0.031910000000     0.405580000000     0.13245    
H22      H      0.006900000000     0.086270000000     0.417680000000     0.187222   
H23      H      0.066950000000     0.096520000000     0.513230000000     0.135373   
H24      H      0.069290000000     0.059290000000     0.560990000000     0.188666   
H25      H      0.007870000000     0.937220000000     0.583070000000     0.143195   
H26      H      0.995120000000     0.881090000000     0.534140000000     0.193791   
H27      H      0.904330000000     0.859860000000     0.464140000000     0.12518    
H28      H      0.897480000000     0.904330000000     0.413760000000     0.181764   
H29      H      0.067370000000     0.031750000000     0.588920000000     0.198038   
H30      H      0.965540000000     0.881790000000     0.554490000000     0.19734    
H31      H      0.891840000000     0.930100000000     0.387480000000     0.199806   
H32      H      0.024800000000     0.115720000000     0.441380000000     0.200289   
H33      H      0.909980000000     0.457600000000     0.011240000000     0.193931   
H34      H      0.958570000000     0.459640000000     0.906510000000     0.196493   
H35      H      0.037200000000     0.566050000000     0.970950000000     0.200758   
H36      H      0.031400000000     0.447580000000     0.011220000000     0.187649   
H37      H      0.899820000000     0.476120000000     0.896820000000     0.132855   
H38      H      0.953130000000     0.538010000000     0.881150000000     0.196081   
H39      H      0.078470000000     0.568210000000     0.915410000000     0.133149   
H40      H      0.113880000000     0.575940000000     0.966720000000     0.188453   
H41      H      0.068790000000     0.486420000000     0.052690000000     0.125228   
H42      H      0.016860000000     0.427930000000     0.068620000000     0.189262   
H43      H      0.896220000000     0.380650000000     0.023500000000     0.138418   
H44      H      0.835690000000     0.399740000000     0.956250000000     0.202162   
H45      H      0.134440000000     0.562960000000     0.993900000000     0.202272   
H46      H      0.986200000000     0.427630000000     0.088350000000     0.204583   
H47      H      0.853930000000     0.402010000000     0.990240000000     0.189152   
H48      H      0.970780000000     0.520230000000     0.863720000000     0.197039   
H49      H      0.928760000000     0.461440000000     0.533480000000     0.195762   
H50      H      0.927020000000     0.464560000000     0.415020000000     0.193461   
H51      H      0.041460000000     0.563200000000     0.470620000000     0.199031   
H52      H      0.024460000000     0.436680000000     0.488030000000     0.197134   
H53      H      0.859280000000     0.456200000000     0.424530000000     0.132433   
H54      H      0.931460000000     0.550290000000     0.408400000000     0.207231   
H55      H      0.056670000000     0.572380000000     0.410840000000     0.128827   
H56      H      0.119850000000     0.563910000000     0.452360000000     0.190312   
H57      H      0.088840000000     0.487790000000     0.529730000000     0.138507   
H58      H      0.031470000000     0.415540000000     0.542520000000     0.194907   
H59      H      0.903300000000     0.389950000000     0.540280000000     0.129055   
H60      H      0.845020000000     0.402360000000     0.506420000000     0.190497   
H61      H      0.135750000000     0.547530000000     0.480540000000     0.199933   
H62      H      0.022730000000     0.426420000000     0.572470000000     0.203167   
H63      H      0.826700000000     0.418360000000     0.479850000000     0.197172   
H64      H      0.931110000000     0.527270000000     0.383060000000     0.199193   
H65      H      0.475920000000     0.943750000000     0.918460000000     0.192395   
H66      H      0.436340000000     0.921780000000     0.030040000000     0.197747   
H67      H      0.570330000000     0.022710000000     0.004030000000     0.197488   
H68      H      0.454460000000     0.037130000000     0.961410000000     0.197173   
H69      H      0.460120000000     0.869110000000     0.012130000000     0.141479   
H70      H      0.515350000000     0.905290000000     0.054240000000     0.200418   
H71      H      0.549890000000     0.020680000000     0.070170000000     0.133344   
H72      H      0.578720000000     0.076020000000     0.034830000000     0.186301   
H73      H      0.537330000000     0.095160000000     0.933630000000     0.141966   
H74      H      0.452710000000     0.057340000000     0.904000000000     0.195382   
H75      H      0.408120000000     0.943070000000     0.889040000000     0.128619   
H76      H      0.408840000000     0.889000000000     0.914020000000     0.183755   
H77      H      0.569300000000     0.106730000000     0.022130000000     0.202115   
H78      H      0.488830000000     0.061810000000     0.888930000000     0.198626   
H79      H      0.389690000000     0.856060000000     0.938410000000     0.201498   
H80      H      0.481430000000     0.903360000000     0.070800000000     0.196225   
H81      H      0.407040000000     0.959160000000     0.433970000000     0.191619   
H82      H      0.455490000000     0.965630000000     0.548390000000     0.199441   
H83      H      0.517770000000     0.929480000000     0.473940000000     0.191747   
H84      H      0.541000000000     0.058320000000     0.461710000000     0.192778   
H85      H      0.378650000000     0.897130000000     0.534690000000     0.134296   
H86      H      0.433510000000     0.895810000000     0.567690000000     0.186362   
H87      H      0.545000000000     0.918310000000     0.520640000000     0.128267   
H88      H      0.599380000000     0.978260000000     0.497500000000     0.198751   
H89      H      0.593980000000     0.051110000000     0.420930000000     0.130581   
H90      H      0.535370000000     0.070270000000     0.400420000000     0.182301   
H91      H      0.412910000000     0.034750000000     0.436290000000     0.141191   
H92      H      0.356600000000     0.980030000000     0.491030000000     0.202015   
H93      H      0.590330000000     0.961860000000     0.465480000000     0.194468   
H94      H      0.499960000000     0.073070000000     0.383900000000     0.195033   
H95      H      0.360380000000     0.973400000000     0.457290000000     0.186634   
H96      H      0.463680000000     0.882180000000     0.573770000000     0.19877    
H97      H      0.466380000000     0.476840000000     0.062940000000     0.2042     
H98      H      0.407740000000     0.448950000000     0.952530000000     0.188575   
H99      H      0.539900000000     0.558390000000     0.966090000000     0.196934   
H100     H      0.527910000000     0.434400000000     0.995530000000     0.204613   
H101     H      0.348420000000     0.453990000000     0.997420000000     0.131728   
H102     H      0.392360000000     0.496140000000     0.926190000000     0.19269    
H103     H      0.521970000000     0.551000000000     0.903740000000     0.1294     
H104     H      0.594930000000     0.548010000000     0.924380000000     0.189119   
H105     H      0.619200000000     0.503460000000     0.996000000000     0.136293   
H106     H      0.556420000000     0.423010000000     0.056550000000     0.197365   
H107     H      0.449570000000     0.408650000000     0.084970000000     0.125789   
H108     H      0.379110000000     0.411120000000     0.065080000000     0.188762   
H109     H      0.624820000000     0.541880000000     0.947040000000     0.193762   
H110     H      0.578900000000     0.464280000000     0.060060000000     0.20063    
H111     H      0.352090000000     0.426350000000     0.050090000000     0.188716   
H112     H      0.413430000000     0.537010000000     0.931250000000     0.203856   
H113     H      0.429850000000     0.448200000000     0.551460000000     0.195457   
H114     H      0.424360000000     0.455780000000     0.432940000000     0.191955   
H115     H      0.517080000000     0.568120000000     0.487440000000     0.19294    
H116     H      0.545310000000     0.463560000000     0.499620000000     0.200599   
H117     H      0.359250000000     0.459820000000     0.460300000000     0.137535   
H118     H      0.396350000000     0.494940000000     0.412340000000     0.185438   
H119     H      0.530200000000     0.579720000000     0.424100000000     0.13138    
H120     H      0.592020000000     0.596300000000     0.460780000000     0.186001   
H121     H      0.600720000000     0.521860000000     0.538360000000     0.1392     
H122     H      0.565370000000     0.452020000000     0.555940000000     0.194114   
H123     H      0.432030000000     0.391810000000     0.569040000000     0.129513   
H124     H      0.380690000000     0.371170000000     0.525840000000     0.197355   
H125     H      0.622870000000     0.592230000000     0.483880000000     0.199503   
H126     H      0.549550000000     0.454340000000     0.586460000000     0.202012   
H127     H      0.348010000000     0.381110000000     0.526710000000     0.202048   
H128     H      0.415670000000     0.536570000000     0.405300000000     0.199086   
H129     H      0.461050000000     0.514530000000     0.626500000000     0.0248339  
H130     H      0.447480000000     0.406920000000     0.872220000000     0.0257186  
H131     H      0.404570000000     0.460100000000     0.710000000000     0.0368923  
H132     H      0.488800000000     0.443140000000     0.783570000000     0.0363898  
H133     H      0.447950000000     0.404400000000     0.820650000000     0.0544453  
H134     H      0.501410000000     0.452670000000     0.732300000000     0.0368641  
H135     H      0.416250000000     0.480630000000     0.803250000000     0.0606511  
H136     H      0.449870000000     0.505070000000     0.677760000000     0.0515389  
H137     H      0.477780000000     0.426010000000     0.686170000000     0.0511565  
H138     H      0.391660000000     0.450160000000     0.761250000000     0.0343645  
H139     H      0.489100000000     0.436150000000     0.635080000000     0.021784   
H140     H      0.428290000000     0.510460000000     0.862420000000     0.0881476  
H141     H      0.387960000000     0.488820000000     0.840210000000     0.0688748  
H142     H      0.390460000000     0.472840000000     0.877270000000     0.0729199  
H143     H      0.533680000000     0.561630000000     0.115460000000     0.0228457  
H144     H      0.506510000000     0.457870000000     0.362470000000     0.0250042  
H145     H      0.486820000000     0.527600000000     0.202530000000     0.037003   
H146     H      0.564340000000     0.504740000000     0.279100000000     0.0348485  
H147     H      0.520970000000     0.466210000000     0.312660000000     0.0535286  
H148     H      0.577510000000     0.511110000000     0.228080000000     0.0364112  
H149     H      0.491750000000     0.544030000000     0.297480000000     0.0589514  
H150     H      0.534560000000     0.565860000000     0.167090000000     0.0508104  
H151     H      0.545110000000     0.476720000000     0.185280000000     0.0515485  
H152     H      0.472840000000     0.520180000000     0.253110000000     0.0340843  
H153     H      0.544120000000     0.473010000000     0.133690000000     0.0256565  
H154     H      0.485260000000     0.557600000000     0.363210000000     0.0866008  
H155     H      0.459050000000     0.550560000000     0.329490000000     0.0680423  
H156     H      0.441560000000     0.520500000000     0.359990000000     0.0803307  
H157     H      0.436890000000     0.605930000000     0.442310000000     0.0203464  
H158     H      0.398100000000     0.821020000000     0.454100000000     0.0240363  
H159     H      0.378650000000     0.666140000000     0.444500000000     0.0348157  
H160     H      0.407200000000     0.716050000000     0.538800000000     0.0340737  
H161     H      0.372540000000     0.761300000000     0.457750000000     0.052616   
H162     H      0.406870000000     0.664240000000     0.537090000000     0.0348839  
H163     H      0.452870000000     0.768290000000     0.525330000000     0.0591699  
H164     H      0.415480000000     0.645450000000     0.442710000000     0.0497954  
H165     H      0.391840000000     0.612610000000     0.533120000000     0.0494663  
H166     H      0.384850000000     0.721030000000     0.445780000000     0.0346095  
H167     H      0.419810000000     0.578870000000     0.533020000000     0.0249045  
H168     H      0.481780000000     0.843500000000     0.545280000000     0.0790124  
H169     H      0.500770000000     0.818780000000     0.536650000000     0.0679682  
H170     H      0.508320000000     0.855890000000     0.513800000000     0.0734201  
H171     H      0.512630000000     0.369750000000     0.450990000000     0.0266075  
H172     H      0.515300000000     0.120690000000     0.523500000000     0.022731   
H173     H      0.564300000000     0.301690000000     0.462200000000     0.0357786  
H174     H      0.482050000000     0.199220000000     0.520980000000     0.0350403  
H175     H      0.523710000000     0.174750000000     0.529100000000     0.0530628  
H176     H      0.485450000000     0.252410000000     0.527500000000     0.0373363  
H177     H      0.511610000000     0.192500000000     0.436680000000     0.059546   
H178     H      0.521790000000     0.322560000000     0.449920000000     0.0518657  
H179     H      0.523700000000     0.309270000000     0.543610000000     0.0512224  
H180     H      0.560420000000     0.248110000000     0.455400000000     0.0338833  
H181     H      0.513640000000     0.356860000000     0.544100000000     0.0251203  
H182     H      0.477520000000     0.115550000000     0.416150000000     0.0827137  
H183     H      0.511080000000     0.157240000000     0.405030000000     0.0672456  
H184     H      0.524610000000     0.126630000000     0.418890000000     0.0778314  
H185     H      0.578680000000     0.996120000000     0.861820000000     0.0217973  
H186     H      0.513220000000     0.940290000000     0.618380000000     0.021248   
H187     H      0.598700000000     0.037130000000     0.759800000000     0.0365474  
H188     H      0.491830000000     0.952350000000     0.706370000000     0.0352907  
H189     H      0.522440000000     0.940820000000     0.670250000000     0.0530172  
H190     H      0.490580000000     0.953830000000     0.758450000000     0.03779    
H191     H      0.567960000000     0.047780000000     0.662660000000     0.0598184  
H192     H      0.588800000000     0.995630000000     0.811050000000     0.0507092  
H193     H      0.492870000000     0.002880000000     0.784520000000     0.0523726  
H194     H      0.600130000000     0.035720000000     0.707220000000     0.0348103  
H195     H      0.483690000000     0.003850000000     0.834430000000     0.0277944  
H196     H      0.544870000000     0.063310000000     0.596470000000     0.0834306  
H197     H      0.586440000000     0.078290000000     0.617990000000     0.0694204  
H198     H      0.580950000000     0.057570000000     0.586060000000     0.0866603  
H199     H      0.403620000000     0.983430000000     0.096420000000     0.0252466  
H200     H      0.444920000000     0.925740000000     0.348260000000     0.0260561  
H201     H      0.373860000000     0.954530000000     0.193590000000     0.0361975  
H202     H      0.483000000000     0.977590000000     0.257850000000     0.0371581  
H203     H      0.439690000000     0.924660000000     0.296220000000     0.0555581  
H204     H      0.485610000000     0.978380000000     0.205800000000     0.0374871  
H205     H      0.412200000000     0.003470000000     0.286970000000     0.0597825  
H206     H      0.396170000000     0.984260000000     0.147580000000     0.050742   
H207     H      0.465110000000     0.939980000000     0.171090000000     0.05124    
H208     H      0.372220000000     0.955680000000     0.246120000000     0.0355315  
H209     H      0.473290000000     0.941100000000     0.120710000000     0.0211431  
H210     H      0.436480000000     0.032750000000     0.349960000000     0.0811503  
H211     H      0.395700000000     0.017660000000     0.327370000000     0.0691425  
H212     H      0.395700000000     0.996840000000     0.362810000000     0.0832231  
H213     H      0.459860000000     0.839630000000     0.933990000000     0.0219005  
H214     H      0.500820000000     0.621510000000     0.920490000000     0.0246474  
H215     H      0.574480000000     0.806390000000     0.965820000000     0.0363971  
H216     H      0.486450000000     0.712820000000     0.908140000000     0.0347342  
H217     H      0.512930000000     0.678060000000     0.906480000000     0.052503   
H218     H      0.488710000000     0.767040000000     0.899330000000     0.0362616  
H219     H      0.532830000000     0.699200000000     0.996010000000     0.0591181  
H220     H      0.468650000000     0.792840000000     0.929630000000     0.0509528  
H221     H      0.583630000000     0.857960000000     0.933630000000     0.0501981  
H222     H      0.573500000000     0.752430000000     0.973740000000     0.0340904  
H223     H      0.573780000000     0.905280000000     0.938300000000     0.0240655  
H224     H      0.542270000000     0.634630000000     0.026820000000     0.0876045  
H225     H      0.521650000000     0.658760000000     0.033190000000     0.070552   
H226     H      0.493670000000     0.615950000000     0.025470000000     0.092896   
H227     H      0.397440000000     0.057300000000     0.023920000000     0.0238475  
H228     H      0.445990000000     0.324110000000     0.977470000000     0.0267361  
H229     H      0.397620000000     0.157950000000     0.004310000000     0.0367709  
H230     H      0.486150000000     0.245050000000     0.067610000000     0.0344244  
H231     H      0.436420000000     0.268020000000     0.984200000000     0.0531931  
H232     H      0.484820000000     0.191290000000     0.070160000000     0.036204   
H233     H      0.456410000000     0.275330000000     0.076210000000     0.0583896  
H234     H      0.388570000000     0.104110000000     0.032600000000     0.0503958  
H235     H      0.503680000000     0.168370000000     0.035840000000     0.051209   
H236     H      0.397880000000     0.211400000000     0.002580000000     0.0349132  
H237     H      0.511560000000     0.122040000000     0.027540000000     0.020561   
H238     H      0.447550000000     0.347040000000     0.077570000000     0.0889936  
H239     H      0.462500000000     0.319950000000     0.097940000000     0.0707237  
H240     H      0.494590000000     0.357850000000     0.079260000000     0.0835746  
H241     H      0.814830000000     0.364580000000     0.441640000000     0.0162023  
H242     H      0.656940000000     0.076040000000     0.493750000000     0.0240426  
H243     H      0.774690000000     0.272480000000     0.501600000000     0.0370107  
H244     H      0.728160000000     0.171530000000     0.447640000000     0.0359164  
H245     H      0.712170000000     0.127000000000     0.485200000000     0.0545705  
H246     H      0.775200000000     0.225140000000     0.427290000000     0.0368283  
H247     H      0.666760000000     0.182780000000     0.513980000000     0.0587012  
H248     H      0.769320000000     0.307620000000     0.453890000000     0.0503563  
H249     H      0.843410000000     0.273110000000     0.440150000000     0.0529794  
H250     H      0.728700000000     0.218920000000     0.522590000000     0.0339742  
H251     H      0.889010000000     0.331030000000     0.427960000000     0.026546   
H252     H      0.592880000000     0.113680000000     0.547460000000     0.0845969  
H253     H      0.612090000000     0.157150000000     0.534840000000     0.0700461  
H254     H      0.580440000000     0.126180000000     0.511450000000     0.0891945  
H255     H      0.074030000000     0.631090000000     0.530140000000     0.0267567  
H256     H      0.352630000000     0.831250000000     0.435520000000     0.022608   
H257     H      0.187180000000     0.735690000000     0.531840000000     0.037282   
H258     H      0.240620000000     0.736180000000     0.441950000000     0.0344398  
H259     H      0.300910000000     0.777750000000     0.447650000000     0.0523851  
H260     H      0.195950000000     0.683340000000     0.464940000000     0.0361209  
H261     H      0.245440000000     0.828500000000     0.468680000000     0.0605373  
H262     H      0.122180000000     0.688040000000     0.519330000000     0.0523203  
H263     H      0.194770000000     0.649340000000     0.513450000000     0.0507571  
H264     H      0.232910000000     0.788690000000     0.509530000000     0.0365577  
H265     H      0.146470000000     0.593150000000     0.524210000000     0.0181267  
H266     H      0.314950000000     0.911240000000     0.439450000000     0.072795   
H267     H      0.268590000000     0.886060000000     0.448610000000     0.0687996  
H268     H      0.303320000000     0.900010000000     0.477050000000     0.084901   
H269     H      0.904280000000     0.566130000000     0.516890000000     0.0242466  
H270     H      0.592600000000     0.448520000000     0.462850000000     0.0207366  
H271     H      0.803360000000     0.556190000000     0.470040000000     0.0375548  
H272     H      0.691370000000     0.487840000000     0.522690000000     0.0356376  
H273     H      0.651800000000     0.457780000000     0.480790000000     0.0529347  
H274     H      0.748420000000     0.494410000000     0.545590000000     0.0360355  
H275     H      0.696950000000     0.561750000000     0.449600000000     0.059223   
H276     H      0.852100000000     0.575460000000     0.511090000000     0.0505909  
H277     H      0.783270000000     0.469740000000     0.532320000000     0.0502314  
H278     H      0.746230000000     0.549760000000     0.447150000000     0.0342932  
H279     H      0.835190000000     0.461580000000     0.537350000000     0.0176771  
H280     H      0.633800000000     0.575190000000     0.436610000000     0.0801882  
H281     H      0.661730000000     0.574980000000     0.410770000000     0.0697261  
H282     H      0.613580000000     0.549080000000     0.406610000000     0.0855793  
H283     H      0.372470000000     0.529060000000     0.545960000000     0.0234878  
H284     H      0.122700000000     0.514920000000     0.430020000000     0.0167766  
H285     H      0.212970000000     0.437890000000     0.549280000000     0.0363563  
H286     H      0.225640000000     0.510680000000     0.458100000000     0.0345582  
H287     H      0.176990000000     0.520180000000     0.455290000000     0.0496355  
H288     H      0.279270000000     0.516260000000     0.486630000000     0.0387305  
H289     H      0.124520000000     0.413760000000     0.477170000000     0.0589224  
H290     H      0.316030000000     0.530810000000     0.536330000000     0.0512705  
H291     H      0.258950000000     0.423150000000     0.536060000000     0.0519336  
H292     H      0.158920000000     0.433040000000     0.521360000000     0.0353974  
H293     H      0.315490000000     0.422690000000     0.544470000000     0.0172453  
H294     H      0.047110000000     0.394830000000     0.429360000000     0.0903769  
H295     H      0.067220000000     0.378710000000     0.458340000000     0.0713376  
H296     H      0.039430000000     0.395290000000     0.466770000000     0.0802943  
H297     H      0.975360000000     0.433090000000     0.617310000000     0.0224624  
H298     H      0.057240000000     0.532380000000     0.847700000000     0.0241601  
H299     H      0.962090000000     0.438340000000     0.712220000000     0.0367789  
H300     H      0.077280000000     0.526460000000     0.753550000000     0.0353999  
H301     H      0.056600000000     0.533650000000     0.796210000000     0.0535899  
H302     H      0.063220000000     0.529520000000     0.701170000000     0.0373188  
H303     H      0.015090000000     0.427130000000     0.802660000000     0.0596583  
H304     H      0.986760000000     0.432580000000     0.669020000000     0.0516534  
H305     H      0.018270000000     0.537600000000     0.664190000000     0.0527899  
H306     H      0.975710000000     0.435470000000     0.764420000000     0.0347405  
H307     H      0.006730000000     0.537560000000     0.611490000000     0.0250955  
H308     H      0.985860000000     0.406830000000     0.869170000000     0.0794278  
H309     H      0.010200000000     0.396520000000     0.846960000000     0.0702024  
H310     H      0.032500000000     0.418260000000     0.878770000000     0.0859976  
H311     H      0.995230000000     0.533780000000     0.336600000000     0.0263159  
H312     H      0.914880000000     0.435540000000     0.104150000000     0.0214858  
H313     H      0.938620000000     0.517970000000     0.248240000000     0.0356884  
H314     H      0.967440000000     0.450200000000     0.192100000000     0.0349739  
H315     H      0.914930000000     0.433610000000     0.155910000000     0.0535413  
H316     H      0.977490000000     0.447690000000     0.244740000000     0.0363184  
H317     H      0.966420000000     0.540940000000     0.151190000000     0.0593605  
H318     H      0.986660000000     0.535050000000     0.284600000000     0.0508195  
H319     H      0.948230000000     0.428560000000     0.289920000000     0.0504598  
H320     H      0.929310000000     0.520940000000     0.195360000000     0.0342744  
H321     H      0.958130000000     0.428210000000     0.342480000000     0.0232192  
H322     H      0.951320000000     0.554320000000     0.076300000000     0.0847712  
H323     H      0.978860000000     0.573650000000     0.107640000000     0.0696093  
H324     H      0.995560000000     0.558000000000     0.083050000000     0.0871123  
H325     H      0.928020000000     0.327300000000     0.944670000000     0.0261773  
H326     H      0.640680000000     0.120910000000     0.983800000000     0.020459   
H327     H      0.789160000000     0.241260000000     0.883280000000     0.0366828  
H328     H      0.766820000000     0.179190000000     0.980760000000     0.0356357  
H329     H      0.699800000000     0.167510000000     0.976660000000     0.0530121  
H330     H      0.821660000000     0.233320000000     0.973870000000     0.0369315  
H331     H      0.711530000000     0.121920000000     0.906560000000     0.0591397  
H332     H      0.882630000000     0.267890000000     0.944400000000     0.0502712  
H333     H      0.804340000000     0.296450000000     0.905560000000     0.0507058  
H334     H      0.734690000000     0.186800000000     0.890040000000     0.0355486  
H335     H      0.849330000000     0.354780000000     0.906960000000     0.0224415  
H336     H      0.619680000000     0.061630000000     0.897680000000     0.0870003  
H337     H      0.664600000000     0.073300000000     0.889100000000     0.0707466  
H338     H      0.644270000000     0.043040000000     0.919040000000     0.0867947  
H339     H      0.318230000000     0.893650000000     0.037490000000     0.0241346  
H340     H      0.119030000000     0.607930000000     0.048110000000     0.0252399  
H341     H      0.240020000000     0.775080000000     0.067220000000     0.037989   
H342     H      0.145710000000     0.732560000000     0.987260000000     0.0363743  
H343     H      0.165430000000     0.665250000000     0.050630000000     0.0531547  
H344     H      0.200050000000     0.786920000000     0.979710000000     0.0376895  
H345     H      0.089290000000     0.698630000000     0.019300000000     0.0589528  
H346     H      0.258710000000     0.845960000000     0.048080000000     0.0510616  
H347     H      0.270150000000     0.792960000000     0.983520000000     0.0518083  
H348     H      0.186040000000     0.720160000000     0.074640000000     0.0357632  
H349     H      0.329080000000     0.839590000000     0.974170000000     0.0213433  
H350     H      0.011030000000     0.620670000000     0.031380000000     0.086416   
H351     H      0.028490000000     0.661950000000     0.013090000000     0.0719482  
H352     H      0.022950000000     0.628080000000     0.994000000000     0.091996   
H353     H      0.588800000000     0.490970000000     0.909180000000     0.0154754  
H354     H      0.855980000000     0.512350000000     0.016280000000     0.0184414  
H355     H      0.664760000000     0.414790000000     0.945310000000     0.0366364  
H356     H      0.748690000000     0.525820000000     0.982200000000     0.0344764  
H357     H      0.793710000000     0.501470000000     0.015600000000     0.0533241  
H358     H      0.684820000000     0.509460000000     0.971790000000     0.0324229  
H359     H      0.780980000000     0.487700000000     0.924480000000     0.0618561  
H360     H      0.649580000000     0.500280000000     0.921160000000     0.0473221  
H361     H      0.606620000000     0.403530000000     0.969590000000     0.0510667  
H362     H      0.728580000000     0.431320000000     0.955500000000     0.0358796  
H363     H      0.545800000000     0.395520000000     0.957910000000     0.0202881  
H364     H      0.842980000000     0.479310000000     0.910580000000     0.0825926  
H365     H      0.836110000000     0.514370000000     0.898640000000     0.0698424  
H366     H      0.878330000000     0.521310000000     0.917020000000     0.078922   
H367     H      0.367910000000     0.486120000000     0.065130000000     0.0124494  
H368     H      0.115570000000     0.459980000000     0.929980000000     0.0191577  
H369     H      0.307430000000     0.563270000000     0.995180000000     0.0363651  
H370     H      0.224570000000     0.445630000000     0.972500000000     0.0338227  
H371     H      0.178530000000     0.473000000000     0.928690000000     0.0534958  
H372     H      0.287190000000     0.462530000000     0.989010000000     0.0329306  
H373     H      0.194020000000     0.486260000000     0.019990000000     0.0613319  
H374     H      0.311530000000     0.480190000000     0.042510000000     0.0469655  
H375     H      0.369990000000     0.566270000000     0.983080000000     0.050964   
H376     H      0.244640000000     0.546190000000     0.978740000000     0.0361895  
H377     H      0.426610000000     0.571340000000     0.006210000000     0.0223782  
H378     H      0.096950000000     0.450140000000     0.030250000000     0.0639698  
H379     H      0.140210000000     0.458630000000     0.047390000000     0.067419   
H380     H      0.131380000000     0.492670000000     0.035990000000     0.0799396  
H381     H      0.823290000000     0.889080000000     0.554300000000     0.0216571  
H382     H      0.614580000000     0.595740000000     0.573300000000     0.0145104  
H383     H      0.707170000000     0.796760000000     0.549420000000     0.0346751  
H384     H      0.710390000000     0.689780000000     0.559980000000     0.0339861  
H385     H      0.664780000000     0.649530000000     0.582720000000     0.0517597  
H386     H      0.765470000000     0.741360000000     0.556630000000     0.0362569  
H387     H      0.605330000000     0.697200000000     0.539030000000     0.0571739  
H388     H      0.765750000000     0.839410000000     0.565760000000     0.048202   
H389     H      0.796160000000     0.780930000000     0.521240000000     0.0493179  
H390     H      0.651100000000     0.744230000000     0.556500000000     0.0335236  
H391     H      0.852520000000     0.829260000000     0.511830000000     0.0284472  
H392     H      0.520030000000     0.625920000000     0.543620000000     0.0884737  
H393     H      0.544920000000     0.666210000000     0.524060000000     0.0712998  
H394     H      0.536550000000     0.628620000000     0.508930000000     0.0738509  
H395     H      0.413420000000     0.336300000000     0.428740000000     0.0248157  
H396     H      0.107900000000     0.135750000000     0.438610000000     0.0202653  
H397     H      0.315690000000     0.229690000000     0.447830000000     0.0375639  
H398     H      0.205490000000     0.213990000000     0.388300000000     0.0350428  
H399     H      0.163740000000     0.184990000000     0.428160000000     0.0524547  
H400     H      0.259900000000     0.268320000000     0.385240000000     0.0366248  
H401     H      0.214070000000     0.124890000000     0.424180000000     0.0588024  
H402     H      0.366790000000     0.279290000000     0.417930000000     0.0506544  
H403     H      0.285500000000     0.307940000000     0.422830000000     0.051563   
H404     H      0.260990000000     0.174880000000     0.450690000000     0.0354486  
H405     H      0.331500000000     0.363070000000     0.433470000000     0.026209   
H406     H      0.138350000000     0.048590000000     0.419240000000     0.0874635  
H407     H      0.184430000000     0.067770000000     0.432870000000     0.0708057  
H408     H      0.149440000000     0.051770000000     0.457820000000     0.0936312  
H409     H      0.531270000000     0.891840000000     0.421960000000     0.0209965  
H410     H      0.843780000000     0.986460000000     0.407450000000     0.018606   
H411     H      0.649820000000     0.932900000000     0.457830000000     0.0339387  
H412     H      0.725340000000     0.947890000000     0.377550000000     0.0343467  
H413     H      0.784500000000     0.979840000000     0.393730000000     0.0518926  
H414     H      0.666160000000     0.944180000000     0.366380000000     0.0375653  
H415     H      0.744330000000     0.914630000000     0.471320000000     0.058785   
H416     H      0.585590000000     0.886700000000     0.422580000000     0.0501111  
H417     H      0.643230000000     0.989210000000     0.387010000000     0.0540417  
H418     H      0.709520000000     0.939170000000     0.469390000000     0.0345585  
H419     H      0.589120000000     0.994000000000     0.387540000000     0.0254678  
H420     H      0.817690000000     0.931160000000     0.510630000000     0.0896243  
H421     H      0.778440000000     0.894200000000     0.499240000000     0.071443   
H422     H      0.821700000000     0.904140000000     0.487880000000     0.0830379  
H423     H      0.439840000000     0.077330000000     0.536150000000     0.0237471  
H424     H      0.148900000000     0.998080000000     0.484170000000     0.0207017  
H425     H      0.304990000000     0.028530000000     0.599270000000     0.0366392  
H426     H      0.272030000000     0.061850000000     0.499760000000     0.0335852  
H427     H      0.210930000000     0.012820000000     0.495210000000     0.0513048  
H428     H      0.331790000000     0.067080000000     0.510590000000     0.0358813  
H429     H      0.210570000000     0.052570000000     0.573740000000     0.0591027  
H430     H      0.393000000000     0.092370000000     0.540230000000     0.0503362  
H431     H      0.326910000000     0.993500000000     0.580970000000     0.0515095  
H432     H      0.245040000000     0.022750000000     0.588360000000     0.0352286  
H433     H      0.373330000000     0.979360000000     0.575860000000     0.0225956  
H434     H      0.122870000000     0.021530000000     0.579840000000     0.0839857  
H435     H      0.163930000000     0.059940000000     0.583970000000     0.0677236  
H436     H      0.131770000000     0.058210000000     0.555100000000     0.0822399  
H437     H      0.004690000000     0.630730000000     0.510790000000     0.0270056  
H438     H      0.079430000000     0.907400000000     0.459390000000     0.0187734  
H439     H      0.981990000000     0.716610000000     0.483050000000     0.0337056  
H440     H      0.077090000000     0.808390000000     0.423420000000     0.0352022  
H441     H      0.086410000000     0.857820000000     0.458620000000     0.053696   
H442     H      0.073160000000     0.752710000000     0.430270000000     0.0372058  
H443     H      0.976630000000     0.803390000000     0.425550000000     0.0624876  
H444     H      0.017050000000     0.688390000000     0.506680000000     0.0518872  
H445     H      0.026830000000     0.694220000000     0.414530000000     0.0520063  
H446     H      0.985840000000     0.771660000000     0.476090000000     0.0337833  
H447     H      0.014280000000     0.636400000000     0.419160000000     0.0271027  
H448     H      0.966030000000     0.879400000000     0.411020000000     0.0831601  
H449     H      0.951360000000     0.838060000000     0.400400000000     0.0705521  
H450     H      0.940690000000     0.842600000000     0.435110000000     0.0858215  
H451     H      0.953320000000     0.332980000000     0.442600000000     0.0237778  
H452     H      0.915530000000     0.068120000000     0.541210000000     0.0188836  
H453     H      0.973460000000     0.245880000000     0.465770000000     0.0351229  
H454     H      0.880770000000     0.154440000000     0.527350000000     0.0355619  
H455     H      0.910820000000     0.118810000000     0.542720000000     0.053396   
H456     H      0.889400000000     0.211560000000     0.525690000000     0.0373251  
H457     H      0.918080000000     0.136770000000     0.449920000000     0.0600482  
H458     H      0.940740000000     0.275490000000     0.446190000000     0.0495206  
H459     H      0.933960000000     0.269530000000     0.538840000000     0.0507072  
H460     H      0.965000000000     0.189610000000     0.467450000000     0.034615   
H461     H      0.946030000000     0.327270000000     0.534570000000     0.0255589  
H462     H      0.909800000000     0.054520000000     0.441170000000     0.0815803  
H463     H      0.905100000000     0.089520000000     0.423470000000     0.0702324  
H464     H      0.949080000000     0.094610000000     0.433620000000     0.0777726  
H465     H      0.006380000000     0.999510000000     0.628360000000     0.0223752  
H466     H      0.952260000000     0.032410000000     0.849990000000     0.0166384  
H467     H      0.985270000000     0.037750000000     0.706680000000     0.0359103  
H468     H      0.879360000000     0.943490000000     0.754000000000     0.0347798  
H469     H      0.945580000000     0.037340000000     0.797520000000     0.0528002  
H470     H      0.884540000000     0.945510000000     0.701780000000     0.0368012  
H471     H      0.912580000000     0.932890000000     0.796510000000     0.0594926  
H472     H      0.996810000000     0.002390000000     0.677800000000     0.0489656  
H473     H      0.886900000000     0.977860000000     0.652850000000     0.050999   
H474     H      0.980500000000     0.035420000000     0.758850000000     0.03441    
H475     H      0.897240000000     0.975110000000     0.602960000000     0.0248259  
H476     H      0.896540000000     0.913490000000     0.873150000000     0.0884064  
H477     H      0.892800000000     0.897280000000     0.839000000000     0.0692378  
H478     H      0.934570000000     0.912710000000     0.860250000000     0.0809564  
H479     H      0.071050000000     0.990390000000     0.367900000000     0.0227389  
H480     H      0.029430000000     0.019630000000     0.121190000000     0.0265474  
H481     H      0.984050000000     0.916790000000     0.268840000000     0.0324538  
H482     H      0.078300000000     0.016400000000     0.215180000000     0.0356786  
H483     H      0.037820000000     0.018640000000     0.173040000000     0.0549489  
H484     H      0.075820000000     0.016200000000     0.267640000000     0.036871   
H485     H      0.022280000000     0.918760000000     0.177770000000     0.0592852  
H486     H      0.080520000000     0.986520000000     0.317990000000     0.0513574  
H487     H      0.967520000000     0.950850000000     0.296140000000     0.0512899  
H488     H      0.986160000000     0.917110000000     0.216550000000     0.0308582  
H489     H      0.958870000000     0.955100000000     0.345440000000     0.0219053  
H490     H      0.030670000000     0.914070000000     0.106870000000     0.0890573  
H491     H      0.007480000000     0.888950000000     0.138160000000     0.067724   
H492     H      0.983090000000     0.899710000000     0.108890000000     0.0746666  
H493     H      0.606190000000     0.639820000000     0.017490000000     0.0215216  
H494     H      0.818660000000     0.875980000000     0.935960000000     0.0183465  
H495     H      0.759340000000     0.697200000000     0.991080000000     0.0355545  
H496     H      0.721040000000     0.768430000000     0.924270000000     0.0343733  
H497     H      0.766530000000     0.821630000000     0.939250000000     0.0528476  
H498     H      0.675760000000     0.717750000000     0.949910000000     0.037063   
H499     H      0.829230000000     0.777670000000     0.919100000000     0.0584464  
H500     H      0.656260000000     0.693790000000     0.001610000000     0.0510893  
H501     H      0.709940000000     0.642770000000     0.976960000000     0.0494526  
H502     H      0.804570000000     0.747880000000     0.965880000000     0.0349713  
H503     H      0.660150000000     0.589860000000     0.992970000000     0.0136312  
H504     H      0.910440000000     0.837880000000     0.932770000000     0.0823688  
H505     H      0.887770000000     0.811040000000     0.903860000000     0.0678196  
H506     H      0.905690000000     0.855490000000     0.896560000000     0.0824355  
H507     H      0.081890000000     0.121050000000     0.050920000000     0.0241131  
H508     H      0.368380000000     0.322100000000     0.976150000000     0.0253411  
H509     H      0.198850000000     0.218440000000     0.068090000000     0.0358798  
H510     H      0.258780000000     0.225610000000     0.979650000000     0.035144   
H511     H      0.319830000000     0.267520000000     0.990810000000     0.0540008  
H512     H      0.211690000000     0.171850000000     0.998360000000     0.037053   
H513     H      0.256340000000     0.312540000000     0.006550000000     0.0591595  
H514     H      0.135480000000     0.176120000000     0.051880000000     0.0509114  
H515     H      0.200630000000     0.130850000000     0.040720000000     0.0507108  
H516     H      0.246730000000     0.272750000000     0.049370000000     0.0341741  
H517     H      0.146720000000     0.077110000000     0.038280000000     0.0161535  
H518     H      0.317390000000     0.394340000000     0.970580000000     0.0714436  
H519     H      0.273040000000     0.367350000000     0.983530000000     0.0658501  
H520     H      0.310180000000     0.387610000000     0.009050000000     0.0706246  
H521     H      0.614610000000     0.972740000000     0.067790000000     0.0271014  
H522     H      0.909550000000     0.029640000000     0.068450000000     0.0227478  
H523     H      0.740330000000     0.016360000000     0.082710000000     0.0372829  
H524     H      0.768050000000     0.935530000000     0.045540000000     0.0344618  
H525     H      0.854400000000     0.030800000000     0.074100000000     0.0539166  
H526     H      0.711940000000     0.935540000000     0.029440000000     0.0363196  
H527     H      0.799170000000     0.923550000000     0.091210000000     0.0605222  
H528     H      0.670770000000     0.974380000000     0.086120000000     0.0518122  
H529     H      0.697150000000     0.978310000000     0.998330000000     0.051084   
H530     H      0.797170000000     0.016460000000     0.099020000000     0.0351663  
H531     H      0.641010000000     0.977040000000     0.980410000000     0.023736   
H532     H      0.883540000000     0.917740000000     0.093860000000     0.0773464  
H533     H      0.839010000000     0.898530000000     0.107410000000     0.069886   
H534     H      0.843900000000     0.899310000000     0.069500000000     0.0788592  
H535     H      0.354470000000     0.988110000000     0.888580000000     0.0265504  
H536     H      0.121050000000     0.027280000000     0.903520000000     0.0208152  
H537     H      0.207070000000     0.920820000000     0.928010000000     0.0370626  
H538     H      0.203490000000     0.009720000000     0.857410000000     0.0349348  
H539     H      0.171380000000     0.022570000000     0.891540000000     0.0535785  
H540     H      0.260730000000     0.010150000000     0.870220000000     0.0365708  
H541     H      0.101340000000     0.919340000000     0.875950000000     0.0608435  
H542     H      0.295960000000     0.980160000000     0.869600000000     0.0516559  
H543     H      0.261450000000     0.960290000000     0.957080000000     0.0511753  
H544     H      0.149960000000     0.920670000000     0.915470000000     0.0359482  
H545     H      0.320180000000     0.968220000000     0.975570000000     0.0259417  
H546     H      0.019820000000     0.924660000000     0.872790000000     0.0883087  
H547     H      0.038890000000     0.897630000000     0.871730000000     0.0724428  
H548     H      0.028750000000     0.904200000000     0.905940000000     0.0956635  
H549     H      0.024390000000     0.632890000000     0.904540000000     0.0255521  
H550     H      0.971900000000     0.848050000000     0.927970000000     0.0149255  
H551     H      0.011680000000     0.732620000000     0.891500000000     0.0365391  
H552     H      0.032360000000     0.769880000000     0.990930000000     0.034037   
H553     H      0.981990000000     0.804310000000     0.916440000000     0.0508937  
H554     H      0.023400000000     0.714680000000     0.984530000000     0.0330555  
H555     H      0.066750000000     0.829960000000     0.983560000000     0.0595739  
H556     H      0.039440000000     0.691610000000     0.901870000000     0.0523309  
H557     H      0.962800000000     0.666550000000     0.966330000000     0.050868   
H558     H      0.022030000000     0.788870000000     0.897720000000     0.0338671  
H559     H      0.948390000000     0.608660000000     0.968530000000     0.0227805  
H560     H      0.074800000000     0.909260000000     0.992950000000     0.0821118  
H561     H      0.051780000000     0.876800000000     0.021280000000     0.086618   
H562     H      0.089750000000     0.879390000000     0.005780000000     0.0699853  
H563     H      0.948270000000     0.107540000000     0.960990000000     0.0250829  
H564     H      0.934290000000     0.328470000000     0.034900000000     0.0213848  
H565     H      0.015180000000     0.207270000000     0.042640000000     0.0398997  
H566     H      0.915860000000     0.229790000000     0.002540000000     0.0351257  
H567     H      0.926110000000     0.272020000000     0.042800000000     0.0535931  
H568     H      0.909990000000     0.174550000000     0.998990000000     0.0368491  
H569     H      0.025250000000     0.305080000000     0.002430000000     0.0604732  
H570     H      0.943770000000     0.156190000000     0.969920000000     0.0514156  
H571     H      0.978490000000     0.146490000000     0.059630000000     0.0508234  
H572     H      0.020860000000     0.262160000000     0.046220000000     0.0376676  
H573     H      0.982940000000     0.098280000000     0.050250000000     0.0260011  
H574     H      0.066630000000     0.362910000000     0.996820000000     0.0698712  
H575     H      0.041280000000     0.375170000000     0.969600000000     0.0879564  
H576     H      0.054800000000     0.393740000000     0.003950000000     0.0771459  
N1       N      0.432850000000     0.445910000000     0.867870000000    -0.207706   
N2       N      0.475400000000     0.475760000000     0.626730000000    -0.193947   
N3       N      0.489930000000     0.495570000000     0.359670000000    -0.206585   
N4       N      0.537370000000     0.516270000000     0.120620000000    -0.192602   
N5       N      0.438940000000     0.829540000000     0.488460000000    -0.209922   
N6       N      0.430280000000     0.589700000000     0.487640000000    -0.196244   
N7       N      0.508610000000     0.123940000000     0.476530000000    -0.209791   
N8       N      0.511720000000     0.366500000000     0.497640000000    -0.195021   
N9       N      0.534140000000     0.993600000000     0.609560000000    -0.206205   
N10      N      0.530090000000     0.999340000000     0.852140000000    -0.19254    
N11      N      0.433000000000     0.966120000000     0.348530000000    -0.206156   
N12      N      0.439950000000     0.963310000000     0.104720000000    -0.193079   
N13      N      0.509920000000     0.626640000000     0.966550000000    -0.204503   
N14      N      0.516210000000     0.875940000000     0.937330000000    -0.192226   
N15      N      0.457930000000     0.333990000000     0.022700000000    -0.203947   
N16      N      0.455030000000     0.086190000000     0.024350000000    -0.191582   
N17      N      0.628490000000     0.099360000000     0.507300000000    -0.208183   
N18      N      0.855880000000     0.352050000000     0.435670000000    -0.194718   
N19      N      0.330990000000     0.860450000000     0.448740000000    -0.208394   
N20      N      0.106260000000     0.607970000000     0.526040000000    -0.193879   
N21      N      0.609860000000     0.499870000000     0.447210000000    -0.209134   
N22      N      0.873040000000     0.513030000000     0.526100000000    -0.193707   
N23      N      0.090350000000     0.462240000000     0.441700000000    -0.210791   
N24      N      0.348220000000     0.476180000000     0.543530000000    -0.19368    
N25      N      0.033110000000     0.478650000000     0.855830000000    -0.207503   
N26      N      0.990690000000     0.485550000000     0.610310000000    -0.196347   
N27      N      0.942830000000     0.489420000000     0.096950000000    -0.208148   
N28      N      0.976600000000     0.480720000000     0.343630000000    -0.193533   
N29      N      0.640420000000     0.093320000000     0.949480000000    -0.20353    
N30      N      0.891890000000     0.345490000000     0.926540000000    -0.190332   
N31      N      0.076620000000     0.618830000000     0.030990000000    -0.202851   
N32      N      0.328560000000     0.870230000000     0.005370000000    -0.189289   
N33      N      0.853370000000     0.504620000000     0.971320000000    -0.210088   
N34      N      0.563360000000     0.443690000000     0.934340000000    -0.199122   
N35      N      0.119590000000     0.467250000000     0.975180000000    -0.210461   
N36      N      0.401110000000     0.527890000000     0.036140000000    -0.198023   
N37      N      0.580430000000     0.614650000000     0.552030000000    -0.206693   
N38      N      0.842660000000     0.863150000000     0.532500000000    -0.189972   
N39      N      0.127220000000     0.100400000000     0.438300000000    -0.203852   
N40      N      0.375940000000     0.353570000000     0.432780000000    -0.190547   
N41      N      0.829210000000     0.956390000000     0.447970000000    -0.206838   
N42      N      0.556690000000     0.943650000000     0.405810000000    -0.197541   
N43      N      0.142520000000     0.016610000000     0.522260000000    -0.204895   
N44      N      0.409040000000     0.026830000000     0.554430000000    -0.193904   
N45      N      0.023730000000     0.883230000000     0.444660000000    -0.208168   
N46      N      0.008070000000     0.628920000000     0.465260000000    -0.192347   
N47      N      0.922230000000     0.075060000000     0.495430000000    -0.208865   
N48      N      0.951050000000     0.334770000000     0.488330000000    -0.191924   
N49      N      0.937360000000     0.980150000000     0.853990000000    -0.207547   
N50      N      0.952540000000     0.987040000000     0.611760000000    -0.192474   
N51      N      0.019630000000     0.969330000000     0.118270000000    -0.204742   
N52      N      0.014350000000     0.973280000000     0.360510000000    -0.191826   
N53      N      0.855270000000     0.858370000000     0.929050000000    -0.210083   
N54      N      0.628850000000     0.610960000000     0.005100000000    -0.196445   
N55      N      0.341560000000     0.349090000000     0.984470000000    -0.20987    
N56      N      0.110660000000     0.096070000000     0.042520000000    -0.196189   
N57      N      0.885170000000     0.976010000000     0.073610000000    -0.209716   
N58      N      0.623450000000     0.974700000000     0.022680000000    -0.192872   
N59      N      0.081900000000     0.975470000000     0.899360000000    -0.208212   
N60      N      0.341860000000     0.978760000000     0.933550000000    -0.192753   
N61      N      0.012430000000     0.864430000000     0.963190000000    -0.209991   
N62      N      0.986860000000     0.616970000000     0.937920000000    -0.198904   
N63      N      0.983670000000     0.349100000000     0.013240000000    -0.211832   
N64      N      0.966540000000     0.099570000000     0.004750000000    -0.193967   
O1       O      0.087580000000     0.056340000000     0.010810000000    -0.391479   
O2       O      0.049810000000     0.060150000000     0.039040000000    -0.369236   
O3       O      0.949040000000     0.003350000000     0.897650000000    -0.376687   
O4       O      0.954870000000     0.957380000000     0.894940000000    -0.383616   
O5       O      0.963680000000     0.063370000000     0.973500000000    -0.376112   
O6       O      0.981650000000     0.059080000000     0.020960000000    -0.374111   
O7       O      0.071340000000     0.000130000000     0.933840000000    -0.378092   
O8       O      0.024480000000     0.954810000000     0.914850000000    -0.372641   
O9       O      0.080680000000     0.071550000000     0.942800000000    -0.356864   
O10      O      0.113880000000     0.024180000000     0.982680000000    -0.516804   
O11      O      0.001640000000     0.071850000000     0.919040000000    -0.525779   
O12      O      0.909360000000     0.022350000000     0.931280000000    -0.340034   
O13      O      0.014830000000     0.038210000000     0.981740000000    -0.497826   
O14      O      0.005990000000     0.003150000000     0.938120000000    -0.631489   
O15      O      0.011790000000     0.898540000000     0.995060000000    -0.382883   
O16      O      0.986920000000     0.897720000000     0.949330000000    -0.386993   
O17      O      0.896590000000     0.950560000000     0.040810000000    -0.387347   
O18      O      0.941180000000     0.000300000000     0.055420000000    -0.371029   
O19      O      0.878490000000     0.900090000000     0.959230000000    -0.377632   
O20      O      0.916300000000     0.895460000000     0.932010000000    -0.382698   
O21      O      0.011320000000     0.948670000000     0.073550000000    -0.376697   
O22      O      0.007670000000     0.995580000000     0.076590000000    -0.373398   
O23      O      0.964480000000     0.880070000000     0.047010000000    -0.533921   
O24      O      0.056420000000     0.934690000000     0.044050000000    -0.349041   
O25      O      0.882040000000     0.881320000000     0.024310000000    -0.35718    
O26      O      0.854560000000     0.935790000000     0.989200000000    -0.520621   
O27      O      0.951260000000     0.916780000000     0.989090000000    -0.634835   
O28      O      0.960430000000     0.952190000000     0.032550000000    -0.504345   
O29      O      0.024530000000     0.959830000000     0.976970000000    -0.498838   
O30      O      0.941520000000     0.995410000000     0.993670000000    -0.634535   
O31      O      0.033470000000     0.993670000000     0.019810000000    -0.635135   
O32      O      0.932590000000     0.961290000000     0.951110000000    -0.498768   
O33      O      0.986150000000     0.896050000000     0.464140000000    -0.379901   
O34      O      0.042480000000     0.937510000000     0.454300000000    -0.373142   
O35      O      0.885000000000     0.967970000000     0.435600000000    -0.375884   
O36      O      0.874110000000     0.964590000000     0.483060000000    -0.373863   
O37      O      0.977430000000     0.971410000000     0.393510000000    -0.37747    
O38      O      0.034940000000     0.983900000000     0.407970000000    -0.373311   
O39      O      0.898150000000     0.885220000000     0.514450000000    -0.379214   
O40      O      0.881180000000     0.920650000000     0.528480000000    -0.363515   
O41      O      0.918830000000     0.857160000000     0.481370000000    -0.332771   
O42      O      0.976750000000     0.887030000000     0.536200000000    -0.529915   
O43      O      0.903000000000     0.926720000000     0.405910000000    -0.522882   
O44      O      0.942560000000     0.015160000000     0.394710000000    -0.355143   
O45      O      0.977960000000     0.946160000000     0.450830000000    -0.493963   
O46      O      0.923790000000     0.940310000000     0.475910000000    -0.631387   
O47      O      0.989640000000     0.989220000000     0.578710000000    -0.384939   
O48      O      0.933430000000     0.980270000000     0.563600000000    -0.373625   
O49      O      0.071440000000     0.079820000000     0.456340000000    -0.376999   
O50      O      0.087910000000     0.043120000000     0.444790000000    -0.370121   
O51      O      0.964180000000     0.064310000000     0.481370000000    -0.375038   
O52      O      0.922660000000     0.026000000000     0.512370000000    -0.368161   
O53      O      0.086450000000     0.006110000000     0.533770000000    -0.372206   
O54      O      0.094650000000     0.999160000000     0.488350000000    -0.372468   
O55      O      0.060930000000     0.036400000000     0.568950000000    -0.522905   
O56      O      0.031380000000     0.950560000000     0.574100000000    -0.355686   
O57      O      0.042740000000     0.094580000000     0.509590000000    -0.359575   
O58      O      0.015150000000     0.092670000000     0.437270000000    -0.523224   
O59      O      0.990540000000     0.019020000000     0.520640000000    -0.628732   
O60      O      0.045010000000     0.024200000000     0.495130000000    -0.500834   
O61      O      0.963020000000     0.948570000000     0.531140000000    -0.500519   
O62      O      0.005860000000     0.016010000000     0.440380000000    -0.629093   
O63      O      0.018710000000     0.954330000000     0.504970000000    -0.626239   
O64      O      0.950940000000     0.009840000000     0.466970000000    -0.496766   
O65      O      0.969270000000     0.388890000000     0.021730000000    -0.379989   
O66      O      0.998150000000     0.394950000000     0.981330000000    -0.38145    
O67      O      0.882880000000     0.479560000000     0.957890000000    -0.38499    
O68      O      0.909050000000     0.516060000000     0.992920000000    -0.371731   
O69      O      0.899590000000     0.396390000000     0.934580000000    -0.372284   
O70      O      0.948880000000     0.389320000000     0.937060000000    -0.357258   
O71      O      0.950140000000     0.461900000000     0.063180000000    -0.38284    
O72      O      0.955760000000     0.513230000000     0.049780000000    -0.380032   
O73      O      0.906650000000     0.394010000000     0.040570000000    -0.353292   
O74      O      0.995550000000     0.429950000000     0.069690000000    -0.529      
O75      O      0.856460000000     0.408940000000     0.969730000000    -0.524313   
O76      O      0.888440000000     0.451910000000     0.903220000000    -0.35612    
O77      O      0.946900000000     0.424160000000     0.977700000000    -0.500201   
O78      O      0.931140000000     0.463970000000     0.000890000000    -0.62963    
O79      O      0.069280000000     0.568600000000     0.020140000000    -0.371584   
O80      O      0.019840000000     0.575020000000     0.018280000000    -0.367996   
O81      O      0.024890000000     0.505940000000     0.889430000000    -0.386829   
O82      O      0.015500000000     0.453260000000     0.901950000000    -0.383091   
O83      O      0.998440000000     0.575900000000     0.927600000000    -0.380077   
O84      O      0.971330000000     0.570380000000     0.968920000000    -0.37681    
O85      O      0.089620000000     0.491330000000     0.989510000000    -0.390717   
O86      O      0.061680000000     0.451950000000     0.956900000000    -0.369519   
O87      O      0.112600000000     0.560560000000     0.983350000000    -0.52047    
O88      O      0.079880000000     0.510930000000     0.047820000000    -0.34544    
O89      O      0.059270000000     0.573650000000     0.907540000000    -0.345083   
O90      O      0.969150000000     0.528770000000     0.881140000000    -0.533346   
O91      O      0.022580000000     0.541980000000     0.972680000000    -0.635926   
O92      O      0.038110000000     0.502090000000     0.950550000000    -0.496344   
O93      O      0.002980000000     0.498250000000     0.025320000000    -0.492783   
O94      O      0.965990000000     0.467050000000     0.925860000000    -0.635954   
O95      O      0.018080000000     0.458200000000     0.001320000000    -0.627673   
O96      O      0.951670000000     0.508080000000     0.950140000000    -0.499233   
O97      O      0.960670000000     0.381270000000     0.509350000000    -0.37275    
O98      O      0.964210000000     0.383830000000     0.460590000000    -0.364894   
O99      O      0.886470000000     0.478070000000     0.507160000000    -0.383524   
O100     O      0.932290000000     0.527610000000     0.521080000000    -0.365486   
O101     O      0.877390000000     0.403300000000     0.451720000000    -0.383735   
O102     O      0.915150000000     0.392000000000     0.430580000000    -0.365196   
O103     O      0.981350000000     0.458910000000     0.569720000000    -0.384956   
O104     O      0.989330000000     0.511860000000     0.564860000000    -0.375502   
O105     O      0.925220000000     0.393820000000     0.552610000000    -0.34245    
O106     O      0.018360000000     0.423510000000     0.551900000000    -0.526926   
O107     O      0.847690000000     0.418110000000     0.489760000000    -0.513069   
O108     O      0.875840000000     0.476290000000     0.434910000000    -0.355639   
O109     O      0.937070000000     0.424890000000     0.481220000000    -0.498703   
O110     O      0.942980000000     0.466790000000     0.516880000000    -0.630783   
O111     O      0.084410000000     0.557510000000     0.508310000000    -0.384222   
O112     O      0.045690000000     0.570420000000     0.525950000000    -0.364457   
O113     O      0.984780000000     0.507130000000     0.384220000000    -0.379814   
O114     O      0.973360000000     0.453040000000     0.389080000000    -0.376791   
O115     O      0.998020000000     0.582260000000     0.444310000000    -0.379674   
O116     O      0.995970000000     0.580200000000     0.493230000000    -0.367077   
O117     O      0.058860000000     0.491170000000     0.435110000000    -0.353199   
O118     O      0.028220000000     0.436940000000     0.432990000000    -0.368481   
O119     O      0.115620000000     0.547530000000     0.468780000000    -0.52124    
O120     O      0.087420000000     0.482010000000     0.509630000000    -0.366513   
O121     O      0.034600000000     0.572380000000     0.401710000000    -0.334109   
O122     O      0.940600000000     0.537150000000     0.401360000000    -0.524255   
O123     O      0.024210000000     0.539640000000     0.472660000000    -0.630815   
O124     O      0.017990000000     0.497430000000     0.437490000000    -0.460107   
O125     O      0.018330000000     0.493710000000     0.521060000000    -0.492937   
O126     O      0.942310000000     0.470360000000     0.432640000000    -0.628301   
O127     O      0.012490000000     0.450080000000     0.485400000000    -0.624692   
O128     O      0.948640000000     0.514330000000     0.468850000000    -0.492763   
O129     O      0.397620000000     0.987110000000     0.925500000000    -0.375995   
O130     O      0.381370000000     0.980370000000     0.971830000000    -0.369653   
O131     O      0.478440000000     0.891860000000     0.952300000000    -0.382999   
O132     O      0.535870000000     0.931650000000     0.943380000000    -0.364052   
O133     O      0.382860000000     0.889080000000     0.986190000000    -0.371655   
O134     O      0.374720000000     0.924670000000     0.010290000000    -0.360512   
O135     O      0.494050000000     0.998770000000     0.885190000000    -0.379937   
O136     O      0.542660000000     0.992440000000     0.901310000000    -0.374917   
O137     O      0.420300000000     0.967170000000     0.882220000000    -0.335267   
O138     O      0.468650000000     0.048790000000     0.901060000000    -0.531679   
O139     O      0.406690000000     0.879410000000     0.933910000000    -0.52311    
O140     O      0.435500000000     0.864790000000     0.005390000000    -0.351522   
O141     O      0.424110000000     0.952700000000     0.959800000000    -0.495824   
O142     O      0.477860000000     0.954690000000     0.935510000000    -0.631423   
O143     O      0.585560000000     0.075360000000     0.967710000000    -0.378618   
O144     O      0.594620000000     0.038160000000     0.947070000000    -0.367491   
O145     O      0.475470000000     0.963560000000     0.071530000000    -0.382855   
O146     O      0.428380000000     0.972450000000     0.055730000000    -0.369874   
O147     O      0.569650000000     0.970500000000     0.031220000000    -0.378339   
O148     O      0.586070000000     0.978500000000     0.984770000000    -0.370896   
O149     O      0.492200000000     0.070470000000     0.007810000000    -0.375892   
O150     O      0.434080000000     0.031140000000     0.014970000000    -0.36685    
O151     O      0.565530000000     0.084340000000     0.021270000000    -0.523109   
O152     O      0.529740000000     0.097800000000     0.952070000000    -0.350944   
O153     O      0.551520000000     0.999770000000     0.072020000000    -0.340552   
O154     O      0.500730000000     0.915070000000     0.057650000000    -0.531306   
O155     O      0.545460000000     0.010750000000     0.996990000000    -0.63419    
O156     O      0.491560000000     0.008210000000     0.021150000000    -0.496171   
O157     O      0.519060000000     0.024520000000     0.941400000000    -0.500717   
O158     O      0.450590000000     0.938600000000     0.015300000000    -0.631667   
O159     O      0.463800000000     0.021670000000     0.966090000000    -0.627906   
O160     O      0.505330000000     0.941390000000     0.990470000000    -0.497656   
O161     O      0.488900000000     0.076520000000     0.452200000000    -0.382683   
O162     O      0.510980000000     0.078240000000     0.498850000000    -0.382736   
O163     O      0.366700000000     0.907840000000     0.471300000000    -0.387229   
O164     O      0.391480000000     0.891390000000     0.440480000000    -0.368348   
O165     O      0.409490000000     0.984310000000     0.535450000000    -0.385632   
O166     O      0.460790000000     0.034270000000     0.536050000000    -0.361227   
O167     O      0.450300000000     0.996300000000     0.388660000000    -0.374661   
O168     O      0.441520000000     0.943140000000     0.393430000000    -0.374722   
O169     O      0.420910000000     0.031310000000     0.418410000000    -0.362789   
O170     O      0.509950000000     0.063320000000     0.399270000000    -0.523582   
O171     O      0.367350000000     0.973310000000     0.477800000000    -0.529206   
O172     O      0.370290000000     0.913950000000     0.530820000000    -0.341398   
O173     O      0.452930000000     0.012320000000     0.483030000000    -0.497974   
O174     O      0.427980000000     0.965530000000     0.447270000000    -0.632169   
O175     O      0.536950000000     0.979210000000     0.415400000000    -0.360294   
O176     O      0.499510000000     0.924630000000     0.420830000000    -0.368127   
O177     O      0.514210000000     0.962840000000     0.569730000000    -0.372738   
O178     O      0.521940000000     0.015530000000     0.565110000000    -0.385021   
O179     O      0.465560000000     0.879610000000     0.508830000000    -0.385415   
O180     O      0.444790000000     0.876660000000     0.461600000000    -0.374031   
O181     O      0.593190000000     0.050770000000     0.485960000000    -0.38269    
O182     O      0.568360000000     0.066430000000     0.517240000000    -0.376775   
O183     O      0.587240000000     0.975050000000     0.478410000000    -0.536298   
O184     O      0.601720000000     0.036860000000     0.434110000000    -0.336866   
O185     O      0.540200000000     0.924960000000     0.538400000000    -0.351041   
O186     O      0.455430000000     0.896700000000     0.562870000000    -0.521537   
O187     O      0.508060000000     0.944090000000     0.476110000000    -0.626733   
O188     O      0.533510000000     0.992000000000     0.511610000000    -0.498192   
O189     O      0.498730000000     0.988640000000     0.430790000000    -0.473594   
O190     O      0.461970000000     0.968290000000     0.528580000000    -0.637318   
O191     O      0.523760000000     0.035070000000     0.466180000000    -0.628706   
O192     O      0.437920000000     0.922240000000     0.492780000000    -0.499697   
O193     O      0.479640000000     0.387590000000     0.036780000000    -0.377251   
O194     O      0.457560000000     0.376150000000     0.990630000000    -0.366214   
O195     O      0.424980000000     0.493750000000     0.050010000000    -0.389371   
O196     O      0.461440000000     0.545490000000     0.033280000000    -0.357582   
O197     O      0.374890000000     0.401350000000     0.999500000000    -0.391567   
O198     O      0.398790000000     0.383210000000     0.969390000000    -0.375176   
O199     O      0.525130000000     0.482110000000     0.084450000000    -0.373981   
O200     O      0.525340000000     0.531910000000     0.073700000000    -0.382105   
O201     O      0.475080000000     0.413900000000     0.087700000000    -0.343699   
O202     O      0.556670000000     0.444200000000     0.055920000000    -0.529348   
O203     O      0.374070000000     0.425160000000     0.050170000000    -0.521146   
O204     O      0.371440000000     0.471290000000     0.989280000000    -0.356057   
O205     O      0.446660000000     0.425360000000     0.015000000000    -0.497001   
O206     O      0.470900000000     0.477840000000     0.042860000000    -0.623961   
O207     O      0.595590000000     0.557880000000     0.992180000000    -0.390977   
O208     O      0.570900000000     0.578230000000     0.019370000000    -0.373326   
O209     O      0.448790000000     0.480940000000     0.903860000000    -0.378778   
O210     O      0.442790000000     0.429030000000     0.915040000000    -0.372852   
O211     O      0.488310000000     0.573170000000     0.952900000000    -0.372961   
O212     O      0.513070000000     0.585390000000     0.998380000000    -0.367393   
O213     O      0.531770000000     0.471760000000     0.932910000000    -0.350867   
O214     O      0.503420000000     0.417730000000     0.943950000000    -0.363002   
O215     O      0.600470000000     0.537800000000     0.942260000000    -0.525299   
O216     O      0.595980000000     0.483010000000     0.992550000000    -0.363393   
O217     O      0.498200000000     0.550050000000     0.902570000000    -0.340414   
O218     O      0.414010000000     0.516260000000     0.931300000000    -0.52491    
O219     O      0.524200000000     0.535800000000     0.973810000000    -0.63077    
O220     O      0.499380000000     0.482910000000     0.946090000000    -0.46003    
O221     O      0.540470000000     0.502660000000     0.023750000000    -0.494914   
O222     O      0.429730000000     0.458820000000     0.964650000000    -0.623114   
O223     O      0.516640000000     0.448180000000     0.995570000000    -0.626083   
O224     O      0.453760000000     0.512200000000     0.993030000000    -0.486167   
O225     O      0.502120000000     0.401630000000     0.521970000000    -0.372241   
O226     O      0.499280000000     0.405520000000     0.472610000000    -0.37562    
O227     O      0.374070000000     0.451600000000     0.523500000000    -0.388559   
O228     O      0.410090000000     0.502230000000     0.541250000000    -0.357595   
O229     O      0.387270000000     0.395610000000     0.459820000000    -0.380868   
O230     O      0.434460000000     0.396810000000     0.440530000000    -0.360448   
O231     O      0.485640000000     0.458630000000     0.586340000000    -0.384596   
O232     O      0.473760000000     0.502100000000     0.581720000000    -0.380143   
O233     O      0.454830000000     0.391700000000     0.567150000000    -0.340729   
O234     O      0.546460000000     0.451690000000     0.565870000000    -0.529682   
O235     O      0.371450000000     0.386680000000     0.520780000000    -0.528908   
O236     O      0.353560000000     0.436120000000     0.464410000000    -0.345925   
O237     O      0.452150000000     0.423650000000     0.497690000000    -0.500288   
O238     O      0.444280000000     0.457680000000     0.534700000000    -0.634864   
O239     O      0.571250000000     0.571500000000     0.527470000000    -0.381541   
O240     O      0.522750000000     0.571140000000     0.543730000000    -0.371897   
O241     O      0.479030000000     0.512170000000     0.400460000000    -0.381439   
O242     O      0.486730000000     0.466550000000     0.404350000000    -0.379099   
O243     O      0.448570000000     0.560580000000     0.463670000000    -0.375365   
O244     O      0.452450000000     0.557720000000     0.513010000000    -0.37514    
O245     O      0.571790000000     0.521010000000     0.449310000000    -0.364907   
O246     O      0.548190000000     0.466130000000     0.446230000000    -0.364833   
O247     O      0.598350000000     0.583280000000     0.475860000000    -0.521219   
O248     O      0.602160000000     0.520820000000     0.517420000000    -0.364454   
O249     O      0.506540000000     0.578830000000     0.423920000000    -0.354789   
O250     O      0.416190000000     0.517060000000     0.415300000000    -0.527936   
O251     O      0.506820000000     0.544060000000     0.488500000000    -0.631501   
O252     O      0.514180000000     0.509650000000     0.451690000000    -0.482725   
O253     O      0.519090000000     0.503690000000     0.535780000000    -0.498419   
O254     O      0.439420000000     0.464170000000     0.450300000000    -0.635283   
O255     O      0.526540000000     0.469690000000     0.498190000000    -0.627467   
O256     O      0.432530000000     0.497570000000     0.487920000000    -0.499684   
Zr1      Zr     0.054780000000     0.018910000000     0.973190000000     1.38639    
Zr2      Zr     0.964630000000     0.020660000000     0.947520000000     1.37331    
Zr3      Zr     0.001570000000     0.934500000000     0.023020000000     1.37997    
Zr4      Zr     0.911490000000     0.936270000000     0.997690000000     1.38272    
Zr5      Zr     0.991870000000     0.011780000000     0.027920000000     1.37119    
Zr6      Zr     0.974260000000     0.943510000000     0.942930000000     1.37019    
Zr7      Zr     0.957900000000     0.913840000000     0.495430000000     1.37178    
Zr8      Zr     0.945040000000     0.974130000000     0.432160000000     1.37608    
Zr9      Zr     0.023650000000     0.990940000000     0.539080000000     1.38011    
Zr10     Zr     0.011540000000     0.051130000000     0.475910000000     1.38208    
Zr11     Zr     0.038910000000     0.987880000000     0.460210000000     1.36595    
Zr12     Zr     0.929610000000     0.976250000000     0.511420000000     1.36058    
Zr13     Zr     0.964900000000     0.439290000000     0.025720000000     1.38172    
Zr14     Zr     0.914510000000     0.449460000000     0.952160000000     1.38857    
Zr15     Zr     0.054870000000     0.517070000000     0.999220000000     1.38643    
Zr16     Zr     0.003940000000     0.525930000000     0.924870000000     1.39316    
Zr17     Zr     0.999810000000     0.442790000000     0.952510000000     1.35649    
Zr18     Zr     0.970090000000     0.523320000000     0.998850000000     1.35859    
Zr19     Zr     0.974670000000     0.435930000000     0.524030000000     1.38038    
Zr20     Zr     0.906730000000     0.456560000000     0.472810000000     1.38309    
Zr21     Zr     0.054860000000     0.508020000000     0.481310000000     1.36386    
Zr22     Zr     0.986190000000     0.528130000000     0.429910000000     1.37888    
Zr23     Zr     0.974140000000     0.439050000000     0.441540000000     1.36068    
Zr24     Zr     0.986570000000     0.525050000000     0.512270000000     1.36051    
Zr25     Zr     0.458140000000     0.995000000000     0.924030000000     1.38121    
Zr26     Zr     0.444600000000     0.913360000000     0.972220000000     1.38669    
Zr27     Zr     0.524610000000     0.049850000000     0.984380000000     1.3828     
Zr28     Zr     0.511560000000     0.968100000000     0.032620000000     1.38534    
Zr29     Zr     0.430300000000     0.978890000000     0.002820000000     1.36243    
Zr30     Zr     0.539120000000     0.984130000000     0.954110000000     1.36048    
Zr31     Zr     0.471550000000     0.021920000000     0.434990000000     1.37221    
Zr32     Zr     0.411160000000     0.955870000000     0.495900000000     1.38864    
Zr33     Zr     0.549970000000     0.000640000000     0.462920000000     1.36654    
Zr34     Zr     0.490040000000     0.935850000000     0.524230000000     1.37811    
Zr35     Zr     0.504790000000     0.024610000000     0.514660000000     1.37186    
Zr36     Zr     0.455640000000     0.931980000000     0.444150000000     1.37363    
Zr37     Zr     0.502000000000     0.447180000000     0.043280000000     1.37288    
Zr38     Zr     0.416410000000     0.457120000000     0.013270000000     1.37583    
Zr39     Zr     0.553780000000     0.503510000000     0.975400000000     1.3636     
Zr40     Zr     0.469050000000     0.514390000000     0.945430000000     1.37901    
Zr41     Zr     0.460860000000     0.427240000000     0.966390000000     1.37265    
Zr42     Zr     0.508800000000     0.533770000000     0.022110000000     1.36901    
Zr43     Zr     0.491670000000     0.444270000000     0.539200000000     1.38089    
Zr44     Zr     0.406350000000     0.438690000000     0.492470000000     1.39587    
Zr45     Zr     0.552800000000     0.528790000000     0.493830000000     1.37108    
Zr46     Zr     0.467480000000     0.523580000000     0.446950000000     1.37836    
Zr47     Zr     0.486450000000     0.449910000000     0.455970000000     1.37244    
Zr48     Zr     0.471510000000     0.517350000000     0.529890000000     1.36947    


