data_structure

_audit_creation_method RASPA-1.0
_audit_creation_date 2023-6-4
_audit_author_name 'Poobodin Mano'

_cell_length_a    34.8844
_cell_length_b    37.5962
_cell_length_c    38.0694
_cell_angle_alpha 82.757
_cell_angle_beta  96.3269
_cell_angle_gamma 119.439
_cell_volume      43067.7

_symmetry_cell_setting          triclinic
_symmetry_space_group_name_Hall 'P 1'
_symmetry_space_group_name_H-M  'P 1'
_symmetry_Int_Tables_number     1

_symmetry_equiv_pos_as_xyz 'x,y,z'

loop_
_atom_site_label
_atom_site_type_symbol
_atom_site_fract_x
_atom_site_fract_y
_atom_site_fract_z
_atom_site_charge
C1       C      0.113860000000     0.103590000000     0.990200000000     0.404378   
C2       C      0.920110000000     0.941700000000     0.856780000000     0.391001   
C3       C      0.977300000000     0.103490000000     0.958650000000     0.425479   
C4       C      0.046820000000     0.932490000000     0.906040000000     0.392063   
C5       C      0.985310000000     0.854090000000     0.993700000000     0.422601   
C6       C      0.914760000000     0.015380000000     0.053840000000     0.394374   
C7       C      0.842900000000     0.849020000000     0.964380000000     0.398491   
C8       C      0.031730000000     0.010490000000     0.098000000000     0.40455    
C9       C      0.004600000000     0.884450000000     0.430690000000     0.388005   
C10      C      0.833590000000     0.978800000000     0.440810000000     0.403867   
C11      C      0.011200000000     0.000930000000     0.354600000000     0.395891   
C12      C      0.828120000000     0.871670000000     0.507520000000     0.391532   
C13      C      0.929530000000     0.953630000000     0.598410000000     0.392584   
C14      C      0.116320000000     0.089890000000     0.443810000000     0.391278   
C15      C      0.942810000000     0.076370000000     0.526980000000     0.394755   
C16      C      0.116710000000     0.995410000000     0.512470000000     0.395216   
C17      C      0.962800000000     0.345220000000     0.979330000000     0.418686   
C18      C      0.876950000000     0.483960000000     0.046750000000     0.396443   
C19      C      0.860690000000     0.353520000000     0.934150000000     0.393991   
C20      C      0.000480000000     0.472890000000     0.110670000000     0.402499   
C21      C      0.094270000000     0.592780000000     0.038670000000     0.400641   
C22      C      0.947930000000     0.478890000000     0.856760000000     0.404994   
C23      C      0.993650000000     0.608560000000     0.987420000000     0.405828   
C24      C      0.070510000000     0.475060000000     0.910190000000     0.376189   
C25      C      0.959010000000     0.343020000000     0.512200000000     0.392627   
C26      C      0.846500000000     0.490900000000     0.506780000000     0.406586   
C27      C      0.873530000000     0.357760000000     0.430540000000     0.396482   
C28      C      0.940430000000     0.485880000000     0.599400000000     0.408319   
C29      C      0.064210000000     0.595060000000     0.541650000000     0.389021   
C30      C      0.009250000000     0.472210000000     0.366940000000     0.404208   
C31      C      0.984310000000     0.614310000000     0.451480000000     0.385983   
C32      C      0.087610000000     0.468290000000     0.456080000000     0.372554   
C33      C      0.327250000000     0.949140000000     0.948110000000     0.40442    
C34      C      0.509160000000     0.875880000000     0.934190000000     0.393639   
C35      C      0.346170000000     0.861770000000     0.030310000000     0.392593   
C36      C      0.510340000000     0.992130000000     0.854550000000     0.395486   
C37      C      0.608380000000     0.083340000000     0.927030000000     0.393934   
C38      C      0.445300000000     0.961860000000     0.101200000000     0.390278   
C39      C      0.617670000000     0.980070000000     0.010060000000     0.402424   
C40      C      0.432080000000     0.068390000000     0.007230000000     0.395633   
C41      C      0.462480000000     0.090280000000     0.462540000000     0.411144   
C42      C      0.336710000000     0.838620000000     0.469400000000     0.396058   
C43      C      0.402460000000     0.009090000000     0.550080000000     0.395517   
C44      C      0.417960000000     0.933120000000     0.359330000000     0.400549   
C45      C      0.532090000000     0.929990000000     0.399440000000     0.373878   
C46      C      0.534300000000     0.005440000000     0.597980000000     0.394518   
C47      C      0.490080000000     0.848850000000     0.493800000000     0.403812   
C48      C      0.602010000000     0.100400000000     0.482600000000     0.398681   
C49      C      0.466980000000     0.341590000000     0.997470000000     0.38801    
C50      C      0.355240000000     0.495330000000     0.983950000000     0.410338   
C51      C      0.380220000000     0.352790000000     0.918850000000     0.406003   
C52      C      0.449830000000     0.487090000000     0.083410000000     0.410466   
C53      C      0.572760000000     0.594040000000     0.023650000000     0.38655    
C54      C      0.509840000000     0.464770000000     0.851200000000     0.411192   
C55      C      0.488490000000     0.610280000000     0.934610000000     0.389506   
C56      C      0.598800000000     0.464250000000     0.943770000000     0.396673   
C57      C      0.464840000000     0.348490000000     0.462330000000     0.411274   
C58      C      0.373250000000     0.503840000000     0.514340000000     0.413861   
C59      C      0.364430000000     0.362320000000     0.409860000000     0.399292   
C60      C      0.491950000000     0.471080000000     0.594990000000     0.408051   
C61      C      0.593110000000     0.594400000000     0.528560000000     0.383949   
C62      C      0.468160000000     0.491960000000     0.340130000000     0.407502   
C63      C      0.502250000000     0.615100000000     0.476120000000     0.419126   
C64      C      0.577770000000     0.476990000000     0.404100000000     0.369627   
C65      C      0.498480000000     0.426260000000     0.800650000000     0.0551575  
C66      C      0.541690000000     0.499130000000     0.797670000000     0.0760608  
C67      C      0.500160000000     0.427870000000     0.763780000000    -0.0684236  
C68      C      0.516470000000     0.438960000000     0.685560000000    -0.086601   
C69      C      0.544010000000     0.501170000000     0.761340000000    -0.0797707  
C70      C      0.515840000000     0.468020000000     0.704670000000     0.0405599  
C71      C      0.521200000000     0.465540000000     0.743790000000     0.0338449  
C72      C      0.508200000000     0.440350000000     0.648940000000     0.0749509  
C73      C      0.499530000000     0.499020000000     0.649650000000     0.074127   
C74      C      0.507370000000     0.498360000000     0.686290000000    -0.0838014  
C75      C      0.444060000000     0.515550000000     0.284060000000     0.054396   
C76      C      0.478390000000     0.473850000000     0.286470000000     0.0731929  
C77      C      0.441640000000     0.517560000000     0.246920000000    -0.0690089  
C78      C      0.459260000000     0.529050000000     0.167500000000    -0.0844574  
C79      C      0.475340000000     0.474770000000     0.249790000000    -0.0813793  
C80      C      0.449310000000     0.494150000000     0.190950000000     0.040526   
C81      C      0.456400000000     0.496400000000     0.229680000000     0.0331723  
C82      C      0.456430000000     0.525960000000     0.130950000000     0.0768689  
C83      C      0.431210000000     0.454480000000     0.140970000000     0.0765659  
C84      C      0.433280000000     0.456390000000     0.177230000000    -0.0860272  
C85      C      0.515500000000     0.669580000000     0.511650000000     0.0595997  
C86      C      0.538510000000     0.683530000000     0.452210000000     0.072464   
C87      C      0.534390000000     0.711500000000     0.514400000000    -0.07602    
C88      C      0.559530000000     0.800310000000     0.509990000000    -0.0885591  
C89      C      0.554480000000     0.725080000000     0.453890000000    -0.0844472  
C90      C      0.544010000000     0.774840000000     0.482220000000     0.0376761  
C91      C      0.549960000000     0.738810000000     0.484580000000     0.0346021  
C92      C      0.540320000000     0.824190000000     0.514120000000     0.0693295  
C93      C      0.492550000000     0.799240000000     0.463050000000     0.0740665  
C94      C      0.511290000000     0.775510000000     0.457930000000    -0.0878377  
C95      C      0.421960000000     0.126810000000     0.441650000000     0.0497793  
C96      C      0.489900000000     0.157610000000     0.476540000000     0.0696993  
C97      C      0.419870000000     0.163160000000     0.440190000000    -0.0705489  
C98      C      0.449940000000     0.246730000000     0.491080000000    -0.0908852  
C99      C      0.487530000000     0.193120000000     0.476280000000    -0.0829139  
C100     C      0.449630000000     0.233050000000     0.458660000000     0.0401101  
C101     C      0.452270000000     0.195810000000     0.458140000000     0.0299468  
C102     C      0.453930000000     0.285110000000     0.491770000000     0.0737715  
C103     C      0.455990000000     0.295520000000     0.428900000000     0.0722388  
C104     C      0.451430000000     0.257000000000     0.427250000000    -0.0910578  
C105     C      0.503750000000     0.020340000000     0.794330000000     0.0550949  
C106     C      0.550160000000     0.990330000000     0.808530000000     0.0694339  
C107     C      0.511170000000     0.023830000000     0.758210000000    -0.0643067  
C108     C      0.544030000000     0.044790000000     0.684110000000    -0.0818668  
C109     C      0.559090000000     0.994810000000     0.772710000000    -0.076742   
C110     C      0.544670000000     0.013230000000     0.707920000000     0.0397657  
C111     C      0.538780000000     0.010970000000     0.746780000000     0.0317195  
C112     C      0.543070000000     0.043080000000     0.647390000000     0.0739208  
C113     C      0.547150000000     0.981610000000     0.656990000000     0.0715169  
C114     C      0.547770000000     0.982180000000     0.693740000000    -0.083787   
C115     C      0.402720000000     0.959570000000     0.149430000000     0.0496829  
C116     C      0.460090000000     0.942100000000     0.160570000000     0.0649648  
C117     C      0.393630000000     0.949700000000     0.185620000000    -0.0693163  
C118     C      0.417730000000     0.901610000000     0.271410000000    -0.0828894  
C119     C      0.452140000000     0.933140000000     0.196660000000    -0.0807956  
C120     C      0.413090000000     0.932070000000     0.248860000000     0.0370279  
C121     C      0.418760000000     0.937080000000     0.209790000000     0.0303511  
C122     C      0.416690000000     0.900630000000     0.308380000000     0.0706641  
C123     C      0.405110000000     0.958160000000     0.301080000000     0.0715481  
C124     C      0.405630000000     0.959800000000     0.264330000000    -0.0845875  
C125     C      0.495790000000     0.669050000000     0.893830000000     0.0474874  
C126     C      0.505560000000     0.673140000000     0.956260000000     0.0645595  
C127     C      0.506340000000     0.710750000000     0.889190000000    -0.0686917  
C128     C      0.479330000000     0.775580000000     0.907310000000    -0.0854802  
C129     C      0.516570000000     0.714450000000     0.952080000000    -0.080526   
C130     C      0.518740000000     0.774390000000     0.914590000000     0.0382794  
C131     C      0.516950000000     0.733750000000     0.918350000000     0.0291464  
C132     C      0.477810000000     0.811090000000     0.911610000000     0.0742329  
C133     C      0.554780000000     0.846720000000     0.925530000000     0.0706332  
C134     C      0.557190000000     0.810730000000     0.922890000000    -0.0834489  
C135     C      0.406890000000     0.114870000000     0.981980000000     0.0600643  
C136     C      0.430170000000     0.114170000000     0.042960000000     0.0730237  
C137     C      0.410160000000     0.153330000000     0.983310000000    -0.0638398  
C138     C      0.461260000000     0.244400000000     0.982960000000    -0.0844432  
C139     C      0.434170000000     0.153070000000     0.044840000000    -0.0760803  
C140     C      0.439160000000     0.218540000000     0.012240000000     0.0358393  
C141     C      0.426390000000     0.174040000000     0.014150000000     0.0307002  
C142     C      0.471180000000     0.285340000000     0.979180000000     0.0687887  
C143     C      0.439780000000     0.277340000000     0.033580000000     0.0634018  
C144     C      0.429310000000     0.235750000000     0.038240000000    -0.0836953  
C145     C      0.662990000000     0.162470000000     0.505780000000     0.0514374  
C146     C      0.650820000000     0.153010000000     0.444090000000     0.0708263  
C147     C      0.703200000000     0.198720000000     0.498690000000    -0.0667466  
C148     C      0.799740000000     0.253820000000     0.468170000000    -0.0845797  
C149     C      0.689570000000     0.188800000000     0.436530000000    -0.0816286  
C150     C      0.758610000000     0.249300000000     0.454920000000     0.0374378  
C151     C      0.716830000000     0.211640000000     0.463850000000     0.0308367  
C152     C      0.838570000000     0.289000000000     0.457430000000     0.0686564  
C153     C      0.796550000000     0.314580000000     0.420780000000     0.0693543  
C154     C      0.757460000000     0.279700000000     0.430320000000    -0.0882518  
C155     C      0.143260000000     0.638840000000     0.547480000000     0.0445378  
C156     C      0.098560000000     0.659050000000     0.507900000000     0.0584624  
C157     C      0.181330000000     0.670510000000     0.531590000000    -0.0715764  
C158     C      0.254910000000     0.729550000000     0.480100000000    -0.0828498  
C159     C      0.135830000000     0.691050000000     0.492150000000    -0.082174   
C160     C      0.218070000000     0.732370000000     0.488190000000     0.037759   
C161     C      0.177880000000     0.696530000000     0.503210000000     0.026252   
C162     C      0.293860000000     0.765320000000     0.469870000000     0.0707625  
C163     C      0.259780000000     0.805530000000     0.474470000000     0.0743189  
C164     C      0.220570000000     0.770870000000     0.483720000000    -0.0861814  
C165     C      0.769670000000     0.457590000000     0.515300000000     0.0554922  
C166     C      0.808750000000     0.528690000000     0.500110000000     0.0734544  
C167     C      0.730950000000     0.455710000000     0.498800000000    -0.0622249  
C168     C      0.658360000000     0.447440000000     0.445360000000    -0.0825285  
C169     C      0.771220000000     0.527830000000     0.482100000000    -0.0725307  
C170     C      0.693700000000     0.486140000000     0.453580000000     0.041134   
C171     C      0.732300000000     0.490050000000     0.478210000000     0.0293386  
C172     C      0.620660000000     0.444410000000     0.425730000000     0.0690776  
C173     C      0.654200000000     0.516510000000     0.416690000000     0.0665136  
C174     C      0.691810000000     0.520830000000     0.436860000000    -0.0842656  
C175     C      0.332620000000     0.539070000000     0.497380000000     0.0617997  
C176     C      0.311530000000     0.486300000000     0.544480000000     0.0733477  
C177     C      0.290380000000     0.534480000000     0.494420000000    -0.0669825  
C178     C      0.179110000000     0.451920000000     0.496200000000    -0.0761912  
C179     C      0.268120000000     0.479640000000     0.540560000000    -0.0774367  
C180     C      0.210740000000     0.492180000000     0.503060000000     0.042487   
C181     C      0.256980000000     0.502890000000     0.514140000000     0.0372043  
C182     C      0.138290000000     0.444150000000     0.479150000000     0.0792603  
C183     C      0.160370000000     0.514890000000     0.474750000000     0.0763783  
C184     C      0.200470000000     0.523610000000     0.492540000000    -0.0797653  
C185     C      0.920160000000     0.500560000000     0.801430000000     0.0557304  
C186     C      0.956500000000     0.460820000000     0.802350000000     0.0722952  
C187     C      0.918380000000     0.504090000000     0.764180000000    -0.0691704  
C188     C      0.942490000000     0.521820000000     0.685140000000    -0.0819502  
C189     C      0.953970000000     0.463110000000     0.765610000000    -0.0807859  
C190     C      0.930340000000     0.485450000000     0.707070000000     0.0408906  
C191     C      0.934910000000     0.484990000000     0.746130000000     0.0340503  
C192     C      0.943270000000     0.521390000000     0.648460000000     0.0780404  
C193     C      0.917280000000     0.449700000000     0.655240000000     0.0769826  
C194     C      0.915800000000     0.448970000000     0.691520000000    -0.0850723  
C195     C      0.046870000000     0.505660000000     0.313140000000     0.0554747  
C196     C      0.996540000000     0.434130000000     0.318030000000     0.0682756  
C197     C      0.046950000000     0.504880000000     0.276560000000    -0.0665815  
C198     C      0.016190000000     0.439210000000     0.203390000000    -0.083668   
C199     C      0.996660000000     0.432510000000     0.281610000000    -0.0818447  
C200     C      0.015810000000     0.469390000000     0.221150000000     0.0390129  
C201     C      0.020360000000     0.468600000000     0.260310000000     0.0330412  
C202     C      0.011450000000     0.440960000000     0.166360000000     0.0712904  
C203     C      0.005400000000     0.501330000000     0.164440000000     0.0736413  
C204     C      0.010330000000     0.500640000000     0.201220000000    -0.0862281  
C205     C      0.688070000000     0.121170000000     0.919260000000     0.0507002  
C206     C      0.641990000000     0.150860000000     0.900580000000     0.0704928  
C207     C      0.725610000000     0.160390000000     0.914340000000    -0.0655573  
C208     C      0.798990000000     0.253540000000     0.895010000000    -0.0843736  
C209     C      0.678480000000     0.189610000000     0.895680000000    -0.078254   
C210     C      0.757920000000     0.237370000000     0.909740000000     0.0381702  
C211     C      0.720830000000     0.195230000000     0.904500000000     0.0296548  
C212     C      0.832780000000     0.293330000000     0.901950000000     0.0688506  
C213     C      0.786320000000     0.300360000000     0.938150000000     0.070714   
C214     C      0.751960000000     0.261680000000     0.931110000000    -0.0872152  
C215     C      0.170960000000     0.636260000000     0.053690000000     0.0514718  
C216     C      0.119160000000     0.659340000000     0.056410000000     0.0676805  
C217     C      0.205600000000     0.676270000000     0.056160000000    -0.0681546  
C218     C      0.277510000000     0.759410000000     0.070960000000    -0.0844519  
C219     C      0.153410000000     0.699560000000     0.060040000000    -0.0784838  
C220     C      0.235100000000     0.752040000000     0.058320000000     0.0381231  
C221     C      0.197460000000     0.708880000000     0.058690000000     0.0301363  
C222     C      0.314120000000     0.797210000000     0.062840000000     0.0753549  
C223     C      0.268260000000     0.824080000000     0.035830000000     0.0740978  
C224     C      0.230620000000     0.785680000000     0.041980000000    -0.0815004  
C225     C      0.677590000000     0.495500000000     0.944210000000     0.0507123  
C226     C      0.635990000000     0.435200000000     0.981270000000     0.0716454  
C227     C      0.716700000000     0.500390000000     0.962880000000    -0.0680554  
C228     C      0.795550000000     0.516650000000     0.013970000000    -0.0831984  
C229     C      0.674200000000     0.440040000000     0.000850000000    -0.079492   
C230     C      0.757060000000     0.478240000000     0.012370000000     0.0395422  
C231     C      0.715460000000     0.473330000000     0.992280000000     0.0311119  
C232     C      0.835500000000     0.519120000000     0.028620000000     0.0740453  
C233     C      0.799130000000     0.447620000000     0.044040000000     0.0709709  
C234     C      0.759310000000     0.443850000000     0.029030000000    -0.0862399  
C235     C      0.280840000000     0.470360000000     0.996950000000     0.0555869  
C236     C      0.319500000000     0.533020000000     0.961850000000     0.0732228  
C237     C      0.240530000000     0.467750000000     0.983780000000    -0.0614449  
C238     C      0.160020000000     0.451100000000     0.936040000000    -0.0825723  
C239     C      0.279610000000     0.530740000000     0.947640000000    -0.0741749  
C240     C      0.196000000000     0.490650000000     0.939800000000     0.0431614  
C241     C      0.239260000000     0.496600000000     0.957170000000     0.0326301  
C242     C      0.118490000000     0.446000000000     0.923350000000     0.0701512  
C243     C      0.148070000000     0.517880000000     0.914070000000     0.0700841  
C244     C      0.189750000000     0.524180000000     0.927170000000    -0.0791271  
C245     C      0.760450000000     0.814400000000     0.489020000000     0.0527454  
C246     C      0.776570000000     0.827280000000     0.549840000000     0.0685869  
C247     C      0.727150000000     0.774660000000     0.498090000000    -0.0676753  
C248     C      0.645850000000     0.701240000000     0.551780000000    -0.0803638  
C249     C      0.742800000000     0.787460000000     0.559640000000    -0.077179   
C250     C      0.688810000000     0.715760000000     0.541730000000     0.0369474  
C251     C      0.719240000000     0.760180000000     0.533520000000     0.0296621  
C252     C      0.614740000000     0.659430000000     0.550330000000     0.067193   
C253     C      0.668590000000     0.646170000000     0.531620000000     0.070464   
C254     C      0.700370000000     0.687380000000     0.532990000000    -0.0850936  
C255     C      0.288530000000     0.313680000000     0.396100000000     0.0581682  
C256     C      0.343450000000     0.293230000000     0.401540000000     0.0679687  
C257     C      0.255600000000     0.272490000000     0.398780000000    -0.0652707  
C258     C      0.207330000000     0.195020000000     0.445320000000    -0.0842666  
C259     C      0.310910000000     0.251550000000     0.404280000000    -0.0779532  
C260     C      0.231560000000     0.198870000000     0.416930000000     0.0369945  
C261     C      0.266470000000     0.240940000000     0.404910000000     0.0302865  
C262     C      0.170680000000     0.157880000000     0.454670000000     0.0697678  
C263     C      0.182110000000     0.125930000000     0.410230000000     0.0673169  
C264     C      0.219670000000     0.163390000000     0.399970000000    -0.0811791  
C265     C      0.768490000000     0.982370000000     0.451600000000     0.0574398  
C266     C      0.771400000000     0.954480000000     0.399870000000     0.0771488  
C267     C      0.723750000000     0.970120000000     0.443080000000    -0.0661738  
C268     C      0.648560000000     0.971200000000     0.384640000000    -0.0851461  
C269     C      0.727070000000     0.942790000000     0.390510000000    -0.0789031  
C270     C      0.656750000000     0.940690000000     0.402620000000     0.033288   
C271     C      0.702730000000     0.949970000000     0.412610000000     0.0306346  
C272     C      0.605710000000     0.965580000000     0.381260000000     0.0647487  
C273     C      0.578350000000     0.898910000000     0.410520000000     0.0588651  
C274     C      0.621050000000     0.903640000000     0.414620000000    -0.0872727  
C275     C      0.179320000000     0.012480000000     0.556500000000     0.0518868  
C276     C      0.186430000000     0.008250000000     0.495980000000     0.0691511  
C277     C      0.222280000000     0.018180000000     0.564520000000    -0.0710112  
C278     C      0.294970000000     0.992480000000     0.569860000000    -0.0863319  
C279     C      0.229880000000     0.016050000000     0.503280000000    -0.0815822  
C280     C      0.291690000000     0.022970000000     0.546830000000     0.0370079  
C281     C      0.247840000000     0.020150000000     0.537970000000     0.0328461  
C282     C      0.334130000000     0.990550000000     0.573280000000     0.071021   
C283     C      0.368970000000     0.051610000000     0.535610000000     0.0735758  
C284     C      0.329620000000     0.053700000000     0.530560000000    -0.0805364  
C285     C      0.963550000000     0.665940000000     0.457430000000     0.05303    
C286     C      0.025130000000     0.682560000000     0.424700000000     0.0647309  
C287     C      0.972830000000     0.707000000000     0.452410000000    -0.0721292  
C288     C      0.975040000000     0.781470000000     0.411080000000    -0.0846377  
C289     C      0.034530000000     0.723840000000     0.418800000000    -0.0795022  
C290     C      0.012480000000     0.778410000000     0.424040000000     0.0358384  
C291     C      0.007970000000     0.736450000000     0.432590000000     0.0317933  
C292     C      0.974780000000     0.818490000000     0.410400000000     0.067963   
C293     C      0.049770000000     0.852140000000     0.430770000000     0.0646119  
C294     C      0.051030000000     0.814820000000     0.432260000000    -0.0812096  
C295     C      0.982810000000     0.293410000000     0.507620000000     0.0514476  
C296     C      0.919680000000     0.274810000000     0.539230000000     0.0656755  
C297     C      0.974750000000     0.252810000000     0.512650000000    -0.0650416  
C298     C      0.975080000000     0.178740000000     0.549550000000    -0.0852895  
C299     C      0.911880000000     0.234050000000     0.545600000000    -0.0772418  
C300     C      0.936390000000     0.181120000000     0.540590000000     0.0391394  
C301     C      0.939880000000     0.222700000000     0.532410000000     0.0306592  
C302     C      0.975320000000     0.142070000000     0.548230000000     0.0721377  
C303     C      0.898240000000     0.107040000000     0.536200000000     0.0765408  
C304     C      0.896910000000     0.144130000000     0.536130000000    -0.0771418  
C305     C      0.885500000000     0.949820000000     0.646770000000     0.0495976  
C306     C      0.943400000000     0.933000000000     0.657720000000     0.0653613  
C307     C      0.879750000000     0.943970000000     0.683640000000    -0.0678041  
C308     C      0.899340000000     0.961600000000     0.761570000000    -0.0824644  
C309     C      0.937870000000     0.926970000000     0.694110000000    -0.0796687  
C310     C      0.903970000000     0.931650000000     0.746970000000     0.0373067  
C311     C      0.906460000000     0.933280000000     0.707730000000     0.0313573  
C312     C      0.902670000000     0.963180000000     0.798340000000     0.0703453  
C313     C      0.912240000000     0.904510000000     0.807230000000     0.0698321  
C314     C      0.909400000000     0.902250000000     0.770410000000    -0.0814408  
C315     C      0.046960000000     0.051400000000     0.148380000000     0.0571281  
C316     C      0.038810000000     0.984380000000     0.157040000000     0.0725183  
C317     C      0.045760000000     0.051300000000     0.185320000000    -0.067104   
C318     C      0.004630000000     0.023860000000     0.258080000000    -0.0786202  
C319     C      0.039540000000     0.984540000000     0.193740000000    -0.0794298  
C320     C      0.036070000000     0.015640000000     0.246850000000     0.0362537  
C321     C      0.041300000000     0.017510000000     0.208230000000     0.0351111  
C322     C      0.997050000000     0.018910000000     0.294080000000     0.0655893  
C323     C      0.052620000000     0.999830000000     0.308740000000     0.0681794  
C324     C      0.060330000000     0.003580000000     0.272660000000    -0.0820444  
C325     C      0.800110000000     0.774450000000     0.962120000000     0.0501542  
C326     C      0.766730000000     0.814160000000     0.971620000000     0.0716161  
C327     C      0.760520000000     0.738510000000     0.970830000000    -0.0674542  
C328     C      0.688570000000     0.671680000000     0.016250000000    -0.0877125  
C329     C      0.727730000000     0.779180000000     0.980570000000    -0.0799821  
C330     C      0.684750000000     0.703420000000     0.995390000000     0.0363013  
C331     C      0.724610000000     0.740700000000     0.981650000000     0.0308713  
C332     C      0.650810000000     0.636440000000     0.027990000000     0.0687142  
C333     C      0.605650000000     0.664200000000     0.001350000000     0.0643715  
C334     C      0.642600000000     0.699690000000     0.988850000000    -0.0862341  
C335     C      0.157750000000     0.178030000000     0.991510000000     0.0586949  
C336     C      0.190470000000     0.136620000000     0.985910000000     0.0750309  
C337     C      0.197720000000     0.213120000000     0.982190000000    -0.0675866  
C338     C      0.266430000000     0.274010000000     0.932080000000    -0.0872584  
C339     C      0.229930000000     0.170800000000     0.976390000000    -0.0804893  
C340     C      0.272200000000     0.245310000000     0.956010000000     0.0384259  
C341     C      0.233290000000     0.209500000000     0.972550000000     0.0333446  
C342     C      0.302850000000     0.308110000000     0.917420000000     0.0738338  
C343     C      0.350790000000     0.284880000000     0.947090000000     0.0722325  
C344     C      0.314970000000     0.250390000000     0.962500000000    -0.0847336  
C345     C      0.846480000000     0.993550000000     0.080270000000     0.0526052  
C346     C      0.868230000000     0.042400000000     0.030240000000     0.0682503  
C347     C      0.803370000000     0.987910000000     0.075030000000    -0.0690032  
C348     C      0.718420000000     0.995260000000     0.063350000000    -0.0841419  
C349     C      0.825800000000     0.037500000000     0.024520000000    -0.0865486  
C350     C      0.745800000000     0.999320000000     0.037160000000     0.0368486  
C351     C      0.792270000000     0.008640000000     0.046000000000     0.0285942  
C352     C      0.675290000000     0.987760000000     0.053990000000     0.0736562  
C353     C      0.684990000000     0.986160000000     0.993700000000     0.0791895  
C354     C      0.728350000000     0.994120000000     0.002080000000    -0.0823251  
C355     C      0.254380000000     0.936510000000     0.963040000000     0.054775   
C356     C      0.267660000000     0.929640000000     0.904830000000     0.0684794  
C357     C      0.210080000000     0.923970000000     0.951880000000    -0.0700748  
C358     C      0.149210000000     0.942600000000     0.881520000000    -0.0846467  
C359     C      0.224280000000     0.919000000000     0.893170000000    -0.0799012  
C360     C      0.151230000000     0.911450000000     0.904490000000     0.0365454  
C361     C      0.194990000000     0.915860000000     0.916850000000     0.0317072  
C362     C      0.111290000000     0.946540000000     0.878980000000     0.070112   
C363     C      0.074670000000     0.885460000000     0.916250000000     0.067546   
C364     C      0.112780000000     0.881350000000     0.920520000000    -0.084878   
C365     C      0.027070000000     0.678950000000     0.962140000000     0.0505858  
C366     C      0.003760000000     0.660490000000     0.021450000000     0.0735477  
C367     C      0.035070000000     0.718530000000     0.964890000000    -0.0725677  
C368     C      0.989890000000     0.767130000000     0.967550000000    -0.0922757  
C369     C      0.012280000000     0.699790000000     0.024880000000    -0.0846618  
C370     C      0.018560000000     0.763240000000     0.994300000000     0.0444529  
C371     C      0.025310000000     0.728110000000     0.995610000000     0.0307722  
C372     C      0.978010000000     0.796850000000     0.968460000000     0.0846797  
C373     C      0.022570000000     0.818860000000     0.021680000000     0.0770931  
C374     C      0.034930000000     0.789040000000     0.021720000000    -0.0930366  
C375     C      0.963290000000     0.156990000000     0.929660000000     0.0595948  
C376     C      0.957680000000     0.138830000000     0.991970000000     0.0763598  
C377     C      0.951010000000     0.186520000000     0.933170000000    -0.0699861  
C378     C      0.922760000000     0.246460000000     0.945300000000    -0.0905762  
C379     C      0.942320000000     0.165350000000     0.995530000000    -0.0824621  
C380     C      0.938330000000     0.227590000000     0.972540000000     0.0422221  
C381     C      0.941430000000     0.191350000000     0.966550000000     0.0345399  
C382     C      0.930790000000     0.285810000000     0.948260000000     0.078319   
C383     C      0.962300000000     0.285270000000     0.006800000000     0.0765759  
C384     C      0.956900000000     0.246810000000     0.004110000000    -0.0880457  
H1       H      0.999440000000     0.982990000000     0.891570000000     0.210842   
H2       H      0.919840000000     0.024600000000     0.979790000000     0.196222   
H3       H      0.918230000000     0.879610000000     0.010980000000     0.203292   
H4       H      0.075600000000     0.019580000000     0.025450000000     0.199356   
H5       H      0.876920000000     0.027540000000     0.914370000000     0.139742   
H6       H      0.836100000000     0.973820000000     0.962430000000     0.193615   
H7       H      0.855940000000     0.880070000000     0.058820000000     0.141715   
H8       H      0.971600000000     0.866890000000     0.090400000000     0.208246   
H9       H      0.089880000000     0.947930000000     0.039000000000     0.140658   
H10      H      0.120290000000     0.972970000000     0.968110000000     0.205805   
H11      H      0.130970000000     0.058080000000     0.904420000000     0.153036   
H12      H      0.025090000000     0.077170000000     0.872980000000     0.221189   
H13      H      0.935630000000     0.884560000000     0.087990000000     0.199165   
H14      H      0.147060000000     0.019160000000     0.984010000000     0.204136   
H15      H      0.977950000000     0.067540000000     0.849580000000     0.224401   
H16      H      0.814410000000     0.953910000000     0.001850000000     0.209195   
H17      H      0.867680000000     0.926480000000     0.449820000000     0.219143   
H18      H      0.024720000000     0.052900000000     0.411330000000     0.191704   
H19      H      0.985100000000     0.027030000000     0.550240000000     0.198812   
H20      H      0.015920000000     0.917110000000     0.496160000000     0.19915    
H21      H      0.969980000000     0.072280000000     0.373460000000     0.135516   
H22      H      0.992590000000     0.123710000000     0.440150000000     0.212588   
H23      H      0.082400000000     0.098300000000     0.538050000000     0.142004   
H24      H      0.056280000000     0.037950000000     0.589500000000     0.200637   
H25      H      0.983920000000     0.889070000000     0.577040000000     0.14138    
H26      H      0.947650000000     0.834790000000     0.513840000000     0.202552   
H27      H      0.881390000000     0.864180000000     0.407250000000     0.140319   
H28      H      0.865150000000     0.922420000000     0.371950000000     0.200922   
H29      H      0.052170000000     0.996430000000     0.614360000000     0.223764   
H30      H      0.907590000000     0.834990000000     0.534180000000     0.20576    
H31      H      0.882990000000     0.963540000000     0.342530000000     0.210627   
H32      H      0.039080000000     0.131770000000     0.423780000000     0.200556   
H33      H      0.931500000000     0.436600000000     0.062210000000     0.203362   
H34      H      0.896860000000     0.448250000000     0.917890000000     0.204255   
H35      H      0.040300000000     0.576460000000     0.976930000000     0.216624   
H36      H      0.045350000000     0.436090000000     0.978220000000     0.200072   
H37      H      0.807040000000     0.419930000000     0.954900000000     0.140228   
H38      H      0.871940000000     0.517700000000     0.919510000000     0.222826   
H39      H      0.035010000000     0.577560000000     0.887070000000     0.149463   
H40      H      0.123430000000     0.601430000000     0.934230000000     0.210463   
H41      H      0.127980000000     0.501800000000     0.021270000000     0.15932    
H42      H      0.069840000000     0.407280000000     0.039190000000     0.202791   
H43      H      0.926520000000     0.357970000000     0.076020000000     0.130113   
H44      H      0.831050000000     0.355020000000     0.039400000000     0.193109   
H45      H      0.159340000000     0.587340000000     0.954800000000     0.220889   
H46      H      0.081460000000     0.440120000000     0.069690000000     0.211572   
H47      H      0.795770000000     0.365980000000     0.013220000000     0.195615   
H48      H      0.905810000000     0.567090000000     0.907660000000     0.23331    
H49      H      0.890770000000     0.450080000000     0.534590000000     0.210859   
H50      H      0.930860000000     0.452290000000     0.399840000000     0.196332   
H51      H      0.040380000000     0.580270000000     0.475520000000     0.193801   
H52      H      0.032420000000     0.432410000000     0.518070000000     0.207202   
H53      H      0.858830000000     0.460940000000     0.390100000000     0.134632   
H54      H      0.922570000000     0.546550000000     0.373860000000     0.211055   
H55      H      0.081120000000     0.590660000000     0.415990000000     0.13496    
H56      H      0.130600000000     0.601090000000     0.473640000000     0.194656   
H57      H      0.093020000000     0.486040000000     0.564800000000     0.148271   
H58      H      0.017430000000     0.402140000000     0.588660000000     0.208154   
H59      H      0.866330000000     0.369450000000     0.559330000000     0.138081   
H60      H      0.816630000000     0.361540000000     0.496630000000     0.20586    
H61      H      0.156840000000     0.585490000000     0.506000000000     0.213754   
H62      H      0.017190000000     0.439230000000     0.608620000000     0.210325   
H63      H      0.789240000000     0.373760000000     0.462660000000     0.217698   
H64      H      0.945620000000     0.530480000000     0.347770000000     0.205926   
H65      H      0.460830000000     0.916180000000     0.910240000000     0.198625   
H66      H      0.437060000000     0.910270000000     0.050910000000     0.198269   
H67      H      0.583020000000     0.038170000000     0.994780000000     0.20844    
H68      H      0.422350000000     0.025590000000     0.952210000000     0.221533   
H69      H      0.448650000000     0.845610000000     0.046910000000     0.130502   
H70      H      0.521560000000     0.898640000000     0.079170000000     0.196119   
H71      H      0.557740000000     0.045100000000     0.081680000000     0.14675    
H72      H      0.594850000000     0.111370000000     0.016770000000     0.202807   
H73      H      0.512230000000     0.106180000000     0.909870000000     0.155357   
H74      H      0.433910000000     0.050520000000     0.881460000000     0.223616   
H75      H      0.367040000000     0.893580000000     0.886990000000     0.133339   
H76      H      0.352860000000     0.838260000000     0.941020000000     0.198548   
H77      H      0.551860000000     0.108470000000     0.035160000000     0.204924   
H78      H      0.383890000000     0.013990000000     0.868710000000     0.228371   
H79      H      0.380230000000     0.811670000000     0.945380000000     0.207825   
H80      H      0.546220000000     0.934470000000     0.108190000000     0.205108   
H81      H      0.371860000000     0.919230000000     0.435600000000     0.194897   
H82      H      0.456630000000     0.961880000000     0.565720000000     0.204639   
H83      H      0.534740000000     0.925900000000     0.471080000000     0.193176   
H84      H      0.523630000000     0.064160000000     0.442410000000     0.194539   
H85      H      0.387800000000     0.888180000000     0.578660000000     0.134716   
H86      H      0.444710000000     0.855470000000     0.576990000000     0.206652   
H87      H      0.592430000000     0.944420000000     0.532970000000     0.136949   
H88      H      0.613050000000     0.967180000000     0.463250000000     0.191244   
H89      H      0.582010000000     0.057310000000     0.384450000000     0.133486   
H90      H      0.499280000000     0.071490000000     0.373950000000     0.187471   
H91      H      0.346620000000     0.972040000000     0.426850000000     0.138688   
H92      H      0.297060000000     0.911390000000     0.501450000000     0.20778    
H93      H      0.642810000000     0.015910000000     0.473040000000     0.211716   
H94      H      0.448200000000     0.055240000000     0.355540000000     0.215921   
H95      H      0.327310000000     0.961990000000     0.492120000000     0.210395   
H96      H      0.481000000000     0.886320000000     0.606740000000     0.205921   
H97      H      0.397240000000     0.449160000000     0.020270000000     0.211021   
H98      H      0.434040000000     0.446220000000     0.885890000000     0.214137   
H99      H      0.546190000000     0.577610000000     0.956800000000     0.194807   
H100     H      0.539470000000     0.431030000000     0.003330000000     0.199525   
H101     H      0.313700000000     0.424720000000     0.901540000000     0.14852    
H102     H      0.413020000000     0.515390000000     0.857190000000     0.220558   
H103     H      0.583440000000     0.582570000000     0.890400000000     0.140807   
H104     H      0.635390000000     0.599830000000     0.956000000000     0.200383   
H105     H      0.600890000000     0.490970000000     0.050680000000     0.138553   
H106     H      0.524860000000     0.439550000000     0.094610000000     0.202248   
H107     H      0.379300000000     0.355060000000     0.042700000000     0.137845   
H108     H      0.328540000000     0.359460000000     0.990890000000     0.20225    
H109     H      0.663810000000     0.581340000000     0.983130000000     0.214705   
H110     H      0.525950000000     0.402540000000     0.075170000000     0.196509   
H111     H      0.296120000000     0.368240000000     0.959310000000     0.2105     
H112     H      0.456070000000     0.542350000000     0.831690000000     0.227069   
H113     H      0.414750000000     0.441530000000     0.538520000000     0.199896   
H114     H      0.410700000000     0.462710000000     0.393590000000     0.208185   
H115     H      0.548100000000     0.579750000000     0.467380000000     0.208603   
H116     H      0.540310000000     0.433140000000     0.470560000000     0.199729   
H117     H      0.343250000000     0.463730000000     0.405980000000     0.145282   
H118     H      0.392340000000     0.537160000000     0.394690000000     0.224218   
H119     H      0.522310000000     0.615850000000     0.373220000000     0.157296   
H120     H      0.645470000000     0.595670000000     0.437630000000     0.201057   
H121     H      0.637250000000     0.508850000000     0.514790000000     0.142712   
H122     H      0.558500000000     0.409920000000     0.536360000000     0.200985   
H123     H      0.434240000000     0.349460000000     0.566910000000     0.145983   
H124     H      0.337970000000     0.363020000000     0.512200000000     0.210719   
H125     H      0.669000000000     0.577380000000     0.470180000000     0.200219   
H126     H      0.526840000000     0.386970000000     0.570990000000     0.20131    
H127     H      0.310270000000     0.389030000000     0.511130000000     0.213855   
H128     H      0.430820000000     0.585610000000     0.385020000000     0.22839    
H129     H      0.508970000000     0.417130000000     0.635230000000     0.0219576  
H130     H      0.558980000000     0.527950000000     0.809930000000     0.038724   
H131     H      0.505680000000     0.520940000000     0.700180000000     0.0597514  
H132     H      0.562200000000     0.530810000000     0.746900000000     0.0591051  
H133     H      0.523270000000     0.415240000000     0.698770000000     0.0560494  
H134     H      0.482560000000     0.400040000000     0.750290000000     0.0610919  
H135     H      0.492850000000     0.522900000000     0.636560000000     0.037772   
H136     H      0.468860000000     0.334330000000     0.790790000000     0.154086   
H137     H      0.466480000000     0.553790000000     0.113490000000     0.0312977  
H138     H      0.494070000000     0.457120000000     0.300790000000     0.0297089  
H139     H      0.423390000000     0.428440000000     0.194500000000     0.0581575  
H140     H      0.487750000000     0.458440000000     0.237220000000     0.0534642  
H141     H      0.471090000000     0.558720000000     0.177320000000     0.0593256  
H142     H      0.426020000000     0.533600000000     0.231380000000     0.0647274  
H143     H      0.419630000000     0.424550000000     0.131670000000     0.0341863  
H144     H      0.356560000000     0.517140000000     0.267980000000     0.158131   
H145     H      0.552640000000     0.843090000000     0.536330000000     0.0294526  
H146     H      0.542060000000     0.674130000000     0.427510000000     0.0253647  
H147     H      0.497490000000     0.755190000000     0.436740000000     0.0603745  
H148     H      0.566580000000     0.745840000000     0.430330000000     0.0559458  
H149     H      0.584190000000     0.799630000000     0.529630000000     0.0567571  
H150     H      0.530810000000     0.722460000000     0.538150000000     0.0640968  
H151     H      0.466320000000     0.797810000000     0.444110000000     0.0317428  
H152     H      0.453060000000     0.672730000000     0.562660000000     0.157866   
H153     H      0.454840000000     0.295080000000     0.517510000000     0.0229848  
H154     H      0.518770000000     0.157490000000     0.490370000000     0.0348009  
H155     H      0.451380000000     0.246820000000     0.401840000000     0.0549839  
H156     H      0.513430000000     0.218560000000     0.489980000000     0.0558158  
H157     H      0.448340000000     0.228300000000     0.515760000000     0.0564775  
H158     H      0.392330000000     0.165730000000     0.426450000000     0.0566107  
H159     H      0.458600000000     0.313940000000     0.404030000000     0.0293031  
H160     H      0.335330000000     0.106790000000     0.390470000000     0.152022   
H161     H      0.540880000000     0.067330000000     0.630130000000     0.03728    
H162     H      0.565590000000     0.976230000000     0.827180000000     0.0336469  
H163     H      0.548430000000     0.957110000000     0.710750000000     0.0549772  
H164     H      0.581490000000     0.985130000000     0.765460000000     0.0562478  
H165     H      0.543190000000     0.070320000000     0.693650000000     0.0605604  
H166     H      0.495100000000     0.036600000000     0.738890000000     0.0576371  
H167     H      0.548040000000     0.955990000000     0.647590000000     0.027355   
H168     H      0.451580000000     0.068730000000     0.758060000000     0.154952   
H169     H      0.421800000000     0.877450000000     0.324850000000     0.0301178  
H170     H      0.486220000000     0.937850000000     0.152250000000     0.0226366  
H171     H      0.402150000000     0.984090000000     0.248290000000     0.0538953  
H172     H      0.473010000000     0.924130000000     0.214300000000     0.0515848  
H173     H      0.422910000000     0.879080000000     0.260640000000     0.0543864  
H174     H      0.367490000000     0.952850000000     0.195270000000     0.0617416  
H175     H      0.400300000000     0.981180000000     0.311440000000     0.0273837  
H176     H      0.371350000000     0.020910000000     0.159980000000     0.149365   
H177     H      0.445900000000     0.809840000000     0.907570000000     0.0189517  
H178     H      0.505220000000     0.660000000000     0.983320000000     0.0329016  
H179     H      0.588330000000     0.810830000000     0.928750000000     0.0540641  
H180     H      0.522890000000     0.730780000000     0.975390000000     0.0553866  
H181     H      0.449030000000     0.748230000000     0.900740000000     0.0594259  
H182     H      0.504450000000     0.725010000000     0.862980000000     0.063918   
H183     H      0.584410000000     0.873730000000     0.933790000000     0.0277094  
H184     H      0.538890000000     0.657770000000     0.837250000000     0.154325   
H185     H      0.487800000000     0.303420000000     0.955630000000     0.0376884  
H186     H      0.440470000000     0.100520000000     0.066260000000     0.0321556  
H187     H      0.412490000000     0.217000000000     0.061450000000     0.0544317  
H188     H      0.446500000000     0.167800000000     0.069380000000     0.0525787  
H189     H      0.470820000000     0.232980000000     0.962650000000     0.0594153  
H190     H      0.402120000000     0.168160000000     0.959620000000     0.0583331  
H191     H      0.430520000000     0.289160000000     0.053770000000     0.0278793  
H192     H      0.376590000000     0.133150000000     0.901290000000     0.15573    
H193     H      0.869750000000     0.292040000000     0.468990000000     0.0327374  
H194     H      0.631180000000     0.136350000000     0.421590000000     0.0222076  
H195     H      0.726310000000     0.276830000000     0.418890000000     0.0532408  
H196     H      0.698630000000     0.198110000000     0.409220000000     0.0540417  
H197     H      0.801880000000     0.230290000000     0.486530000000     0.0583023  
H198     H      0.723990000000     0.216790000000     0.520020000000     0.0599496  
H199     H      0.793880000000     0.337850000000     0.402360000000     0.022024   
H200     H      0.686220000000     0.200910000000     0.579400000000     0.155043   
H201     H      0.322480000000     0.762520000000     0.465690000000     0.0277827  
H202     H      0.066840000000     0.655280000000     0.497090000000     0.0285358  
H203     H      0.193130000000     0.774740000000     0.489360000000     0.0538852  
H204     H      0.131530000000     0.711000000000     0.470840000000     0.0508215  
H205     H      0.254040000000     0.700150000000     0.482660000000     0.053759   
H206     H      0.213660000000     0.675850000000     0.542240000000     0.0607929  
H207     H      0.260490000000     0.834870000000     0.472890000000     0.0173863  
H208     H      0.194050000000     0.665660000000     0.616500000000     0.154693   
H209     H      0.592980000000     0.414080000000     0.422380000000     0.023299   
H210     H      0.838590000000     0.557640000000     0.500680000000     0.0530116  
H211     H      0.718030000000     0.551660000000     0.439790000000     0.0488694  
H212     H      0.774530000000     0.556620000000     0.469970000000     0.0556919  
H213     H      0.658630000000     0.419180000000     0.454460000000     0.0527638  
H214     H      0.700540000000     0.427170000000     0.501810000000     0.0500211  
H215     H      0.653890000000     0.544120000000     0.404740000000     0.020533   
H216     H      0.699620000000     0.385170000000     0.561610000000     0.149782   
H217     H      0.115050000000     0.413060000000     0.473280000000     0.0504799  
H218     H      0.318370000000     0.465560000000     0.563230000000     0.0177771  
H219     H      0.224160000000     0.555260000000     0.496610000000     0.0551745  
H220     H      0.243100000000     0.455080000000     0.556660000000     0.0581203  
H221     H      0.186520000000     0.426960000000     0.502500000000     0.0643468  
H222     H      0.282550000000     0.552870000000     0.473710000000     0.059412   
H223     H      0.155350000000     0.540620000000     0.464990000000     0.0209086  
H224     H      0.357690000000     0.625870000000     0.467340000000     0.149692   
H225     H      0.954890000000     0.550270000000     0.632310000000     0.0369325  
H226     H      0.972870000000     0.444380000000     0.815950000000     0.0313921  
H227     H      0.904530000000     0.420010000000     0.707490000000     0.0584447  
H228     H      0.967450000000     0.448080000000     0.752470000000     0.0563895  
H229     H      0.953390000000     0.550580000000     0.696370000000     0.0630368  
H230     H      0.902340000000     0.520060000000     0.749160000000     0.0656979  
H231     H      0.906640000000     0.420600000000     0.644630000000     0.0356691  
H232     H      0.830270000000     0.496610000000     0.786990000000     0.153433   
H233     H      0.012020000000     0.417040000000     0.153600000000     0.0324933  
H234     H      0.975220000000     0.405880000000     0.333160000000     0.0282539  
H235     H      0.009170000000     0.524230000000     0.214010000000     0.055562   
H236     H      0.976160000000     0.403620000000     0.270010000000     0.0535257  
H237     H      0.020570000000     0.414650000000     0.217940000000     0.0581251  
H238     H      0.067710000000     0.532640000000     0.260650000000     0.0577586  
H239     H      0.001120000000     0.526140000000     0.150280000000     0.0292959  
H240     H      0.130250000000     0.594480000000     0.291540000000     0.154937   
H241     H      0.863840000000     0.305040000000     0.889790000000     0.0279122  
H242     H      0.609800000000     0.148750000000     0.894700000000     0.0368507  
H243     H      0.720930000000     0.250410000000     0.943240000000     0.0538346  
H244     H      0.673320000000     0.215620000000     0.887150000000     0.0570892  
H245     H      0.804840000000     0.235770000000     0.878130000000     0.0573715  
H246     H      0.758390000000     0.164450000000     0.921210000000     0.0601963  
H247     H      0.779520000000     0.317240000000     0.955350000000     0.0206134  
H248     H      0.761890000000     0.105560000000     0.967030000000     0.151169   
H249     H      0.346500000000     0.800680000000     0.071030000000     0.0212757  
H250     H      0.085580000000     0.654080000000     0.055320000000     0.030086   
H251     H      0.198760000000     0.781930000000     0.031750000000     0.0528683  
H252     H      0.145180000000     0.723270000000     0.062900000000     0.0517145  
H253     H      0.282990000000     0.735580000000     0.085650000000     0.0569388  
H254     H      0.238940000000     0.681600000000     0.055430000000     0.0615245  
H255     H      0.263860000000     0.848290000000     0.020640000000     0.0377167  
H256     H      0.222980000000     0.611250000000     0.108650000000     0.15345    
H257     H      0.865030000000     0.548780000000     0.027170000000     0.0301744  
H258     H      0.604840000000     0.410060000000     0.990110000000     0.0195046  
H259     H      0.731260000000     0.413370000000     0.028950000000     0.0483883  
H260     H      0.670690000000     0.418270000000     0.023390000000     0.0491723  
H261     H      0.795410000000     0.544570000000     0.002970000000     0.0574184  
H262     H      0.747990000000     0.524900000000     0.953930000000     0.0618047  
H263     H      0.799050000000     0.419700000000     0.055610000000     0.0189825  
H264     H      0.727180000000     0.517870000000     0.878480000000     0.155753   
H265     H      0.091140000000     0.415040000000     0.922840000000     0.0248575  
H266     H      0.349860000000     0.557900000000     0.951450000000     0.0329725  
H267     H      0.216210000000     0.555340000000     0.928710000000     0.0553365  
H268     H      0.280780000000     0.554330000000     0.927620000000     0.0562862  
H269     H      0.163430000000     0.424020000000     0.943660000000     0.0542541  
H270     H      0.210230000000     0.442740000000     0.993940000000     0.0545311  
H271     H      0.144650000000     0.544720000000     0.904950000000     0.0216427  
H272     H      0.214050000000     0.398950000000     0.050330000000     0.154634   
H273     H      0.581410000000     0.650010000000     0.556210000000     0.0458688  
H274     H      0.796680000000     0.846580000000     0.570780000000     0.037218   
H275     H      0.733340000000     0.697460000000     0.525140000000     0.0582824  
H276     H      0.737070000000     0.777370000000     0.587410000000     0.0577012  
H277     H      0.635560000000     0.722360000000     0.558390000000     0.057961   
H278     H      0.707650000000     0.754630000000     0.477420000000     0.0634392  
H279     H      0.678970000000     0.625850000000     0.523220000000     0.022934   
H280     H      0.697840000000     0.826210000000     0.435230000000     0.149663   
H281     H      0.153120000000     0.157480000000     0.476650000000     0.0352899  
H282     H      0.377600000000     0.300160000000     0.404060000000     0.0304409  
H283     H      0.237910000000     0.164980000000     0.378040000000     0.0554643  
H284     H      0.320780000000     0.228080000000     0.408550000000     0.0535612  
H285     H      0.215990000000     0.221200000000     0.459860000000     0.0591792  
H286     H      0.221250000000     0.264970000000     0.397420000000     0.0659484  
H287     H      0.172560000000     0.099570000000     0.395650000000     0.0283574  
H288     H      0.215320000000     0.352300000000     0.354910000000     0.167414   
H289     H      0.600930000000     0.990490000000     0.368060000000     0.030347   
H290     H      0.788620000000     0.947000000000     0.382520000000     0.0334769  
H291     H      0.626360000000     0.879340000000     0.428600000000     0.054645   
H292     H      0.711930000000     0.928150000000     0.366200000000     0.0575667  
H293     H      0.675470000000     0.000090000000     0.374780000000     0.0603648  
H294     H      0.705600000000     0.977760000000     0.459300000000     0.0536252  
H295     H      0.551830000000     0.870650000000     0.421670000000     0.0270656  
H296     H      0.745790000000     0.021060000000     0.511580000000     0.154492   
H297     H      0.334380000000     0.964840000000     0.589620000000     0.0285111  
H298     H      0.174160000000     0.003880000000     0.468560000000     0.0327794  
H299     H      0.328400000000     0.078190000000     0.512990000000     0.0631146  
H300     H      0.248720000000     0.017120000000     0.481970000000     0.0629113  
H301     H      0.266510000000     0.968570000000     0.583300000000     0.0583876  
H302     H      0.236500000000     0.022000000000     0.591450000000     0.0635485  
H303     H      0.396970000000     0.074640000000     0.521110000000     0.0380806  
H304     H      0.210270000000     0.067330000000     0.619350000000     0.152898   
H305     H      0.944030000000     0.818410000000     0.401790000000     0.0340379  
H306     H      0.046940000000     0.674300000000     0.413950000000     0.0291934  
H307     H      0.080930000000     0.813960000000     0.442040000000     0.0523508  
H308     H      0.061780000000     0.745460000000     0.402930000000     0.0530444  
H309     H      0.944930000000     0.754580000000     0.403330000000     0.0562559  
H310     H      0.951330000000     0.715860000000     0.462800000000     0.0632258  
H311     H      0.078990000000     0.878950000000     0.439870000000     0.0252053  
H312     H      0.868520000000     0.651450000000     0.446250000000     0.148467   
H313     H      0.006910000000     0.142760000000     0.553130000000     0.0343792  
H314     H      0.896780000000     0.282150000000     0.549400000000     0.0308755  
H315     H      0.865850000000     0.144190000000     0.530370000000     0.062979   
H316     H      0.884630000000     0.211880000000     0.561210000000     0.0569735  
H317     H      0.005990000000     0.205880000000     0.555300000000     0.0625597  
H318     H      0.997050000000     0.244930000000     0.502270000000     0.0578053  
H319     H      0.867760000000     0.079400000000     0.531220000000     0.0543976  
H320     H      0.067730000000     0.300350000000     0.474010000000     0.155728   
H321     H      0.900190000000     0.987830000000     0.808050000000     0.0324988  
H322     H      0.969000000000     0.927970000000     0.649450000000     0.0279851  
H323     H      0.912360000000     0.878040000000     0.760380000000     0.0569189  
H324     H      0.959540000000     0.918840000000     0.711610000000     0.0545144  
H325     H      0.895260000000     0.985090000000     0.744700000000     0.0563509  
H326     H      0.854580000000     0.948080000000     0.693860000000     0.0613019  
H327     H      0.917780000000     0.881880000000     0.824210000000     0.0341298  
H328     H      0.828560000000     0.993360000000     0.653300000000     0.154669   
H329     H      0.971820000000     0.025180000000     0.301170000000     0.0258133  
H330     H      0.035380000000     0.956840000000     0.147660000000     0.0329478  
H331     H      0.085070000000     0.997020000000     0.265010000000     0.0545023  
H332     H      0.036480000000     0.957890000000     0.210580000000     0.0555415  
H333     H      0.984920000000     0.032920000000     0.239000000000     0.0612214  
H334     H      0.048850000000     0.077780000000     0.196460000000     0.0647261  
H335     H      0.071920000000     0.990240000000     0.327800000000     0.0289162  
H336     H      0.111820000000     0.142080000000     0.157480000000     0.154513   
H337     H      0.655220000000     0.612110000000     0.043060000000     0.0229793  
H338     H      0.767200000000     0.843200000000     0.972000000000     0.0287896  
H339     H      0.637750000000     0.723360000000     0.973070000000     0.0525523  
H340     H      0.700920000000     0.782750000000     0.988270000000     0.0528996  
H341     H      0.720500000000     0.673780000000     0.023300000000     0.0564366  
H342     H      0.758070000000     0.708730000000     0.970440000000     0.0594241  
H343     H      0.573780000000     0.662080000000     0.994360000000     0.0259235  
H344     H      0.815220000000     0.709940000000     0.930760000000     0.157079   
H345     H      0.296760000000     0.330170000000     0.899990000000     0.0241489  
H346     H      0.189340000000     0.107100000000     0.987220000000     0.0201006  
H347     H      0.321120000000     0.228710000000     0.980370000000     0.0557632  
H348     H      0.256650000000     0.166310000000     0.969940000000     0.0568195  
H349     H      0.233900000000     0.270460000000     0.924840000000     0.0558394  
H350     H      0.200570000000     0.243250000000     0.980710000000     0.0603839  
H351     H      0.383410000000     0.288540000000     0.954090000000     0.0342984  
H352     H      0.126910000000     0.245500000000     0.970480000000     0.152612   
H353     H      0.655710000000     0.985840000000     0.075090000000     0.0286252  
H354     H      0.891700000000     0.062050000000     0.010780000000     0.0139774  
H355     H      0.748060000000     0.996010000000     0.981100000000     0.0558003  
H356     H      0.818880000000     0.054980000000     0.002350000000     0.0565994  
H357     H      0.730560000000     0.998900000000     0.090820000000     0.0565098  
H358     H      0.778350000000     0.966580000000     0.092900000000     0.0547344  
H359     H      0.673120000000     0.982480000000     0.966170000000     0.0427378  
H360     H      0.803010000000     0.940680000000     0.151940000000     0.152649   
H361     H      0.112250000000     0.973190000000     0.863430000000     0.0276534  
H362     H      0.288470000000     0.930990000000     0.884990000000     0.0308279  
H363     H      0.113160000000     0.856600000000     0.938270000000     0.0544167  
H364     H      0.213880000000     0.913770000000     0.865550000000     0.0574428  
H365     H      0.178200000000     0.966210000000     0.868470000000     0.0594265  
H366     H      0.187500000000     0.922850000000     0.969900000000     0.0570917  
H367     H      0.046730000000     0.863560000000     0.931280000000     0.031301   
H368     H      0.210010000000     0.923050000000     0.036150000000     0.152831   
H369     H      0.955630000000     0.798870000000     0.947160000000     0.045534   
H370     H      0.990410000000     0.638570000000     0.044200000000     0.0291299  
H371     H      0.056540000000     0.785820000000     0.043080000000     0.0544438  
H372     H      0.004480000000     0.706660000000     0.049100000000     0.055543   
H373     H      0.975540000000     0.746430000000     0.946630000000     0.0668595  
H374     H      0.046680000000     0.741460000000     0.942590000000     0.0622486  
H375     H      0.036050000000     0.838790000000     0.043170000000     0.0256485  
H376     H      0.109040000000     0.725740000000     0.920060000000     0.148732   
H377     H      0.920620000000     0.300590000000     0.925840000000     0.0296675  
H378     H      0.959950000000     0.120880000000     0.015950000000     0.043147   
H379     H      0.970210000000     0.233950000000     0.025860000000     0.0608189  
H380     H      0.933360000000     0.166710000000     0.021480000000     0.0584791  
H381     H      0.906630000000     0.232010000000     0.921090000000     0.0572609  
H382     H      0.951490000000     0.207060000000     0.910410000000     0.0616982  
H383     H      0.978400000000     0.299890000000     0.031000000000     0.0281741  
H384     H      0.017390000000     0.219750000000     0.870990000000     0.15504    
N1       N      0.517260000000     0.462570000000     0.817090000000    -0.182959   
N2       N      0.499650000000     0.470080000000     0.631080000000    -0.193918   
N3       N      0.463300000000     0.494100000000     0.303780000000    -0.183402   
N4       N      0.444810000000     0.489260000000     0.118080000000    -0.192379   
N5       N      0.517660000000     0.655630000000     0.480080000000    -0.18631    
N6       N      0.506620000000     0.823180000000     0.491090000000    -0.195809   
N7       N      0.457660000000     0.124490000000     0.459660000000    -0.186338   
N8       N      0.458150000000     0.309780000000     0.460980000000    -0.196883   
N9       N      0.521320000000     0.001290000000     0.819430000000    -0.178038   
N10      N      0.542730000000     0.010760000000     0.633790000000    -0.187386   
N11      N      0.435770000000     0.954990000000     0.136660000000    -0.180361   
N12      N      0.412120000000     0.929730000000     0.323210000000    -0.189429   
N13      N      0.496210000000     0.650340000000     0.927700000000    -0.178066   
N14      N      0.514750000000     0.845810000000     0.922250000000    -0.190218   
N15      N      0.419050000000     0.096410000000     0.011400000000    -0.176486   
N16      N      0.459760000000     0.301800000000     0.003810000000    -0.188308   
N17      N      0.637730000000     0.139050000000     0.478240000000    -0.182887   
N18      N      0.836800000000     0.319910000000     0.435020000000    -0.192271   
N19      N      0.101800000000     0.631470000000     0.533780000000    -0.185594   
N20      N      0.296860000000     0.803140000000     0.469360000000    -0.191128   
N21      N      0.809270000000     0.492970000000     0.511060000000    -0.181275   
N22      N      0.617590000000     0.478900000000     0.414070000000    -0.198332   
N23      N      0.342830000000     0.513990000000     0.521770000000    -0.181353   
N24      N      0.128660000000     0.475400000000     0.469460000000    -0.191314   
N25      N      0.940810000000     0.479980000000     0.820470000000    -0.183065   
N26      N      0.932930000000     0.485860000000     0.634000000000    -0.190774   
N27      N      0.018730000000     0.470830000000     0.333260000000    -0.18335    
N28      N      0.005880000000     0.471720000000     0.147000000000    -0.191806   
N29      N      0.646100000000     0.117180000000     0.914490000000    -0.178709   
N30      N      0.826900000000     0.316160000000     0.924260000000    -0.189443   
N31      N      0.127810000000     0.628570000000     0.050940000000    -0.182294   
N32      N      0.309620000000     0.828740000000     0.044230000000    -0.188618   
N33      N      0.637330000000     0.463940000000     0.954710000000    -0.18644    
N34      N      0.837560000000     0.484320000000     0.041440000000    -0.194816   
N35      N      0.319770000000     0.501390000000     0.983880000000    -0.183661   
N36      N      0.112140000000     0.479300000000     0.914570000000    -0.195787   
N37      N      0.787310000000     0.839390000000     0.515070000000    -0.179289   
N38      N      0.625340000000     0.632530000000     0.538240000000    -0.186375   
N39      N      0.332540000000     0.323940000000     0.400630000000    -0.180705   
N40      N      0.156640000000     0.123790000000     0.436410000000    -0.187771   
N41      N      0.791680000000     0.972680000000     0.430790000000    -0.178421   
N42      N      0.571290000000     0.930700000000     0.395940000000    -0.197022   
N43      N      0.160250000000     0.005290000000     0.522140000000    -0.178227   
N44      N      0.369990000000     0.018460000000     0.554590000000    -0.191817   
N45      N      0.990510000000     0.653830000000     0.444450000000    -0.179374   
N46      N      0.010870000000     0.853020000000     0.422340000000    -0.187351   
N47      N      0.954200000000     0.304140000000     0.519760000000    -0.179401   
N48      N      0.937900000000     0.107190000000     0.538580000000    -0.184158   
N49      N      0.918660000000     0.945420000000     0.633720000000    -0.179356   
N50      N      0.910630000000     0.935750000000     0.821130000000    -0.187949   
N51      N      0.040120000000     0.016370000000     0.133940000000    -0.178106   
N52      N      0.020550000000     0.006670000000     0.319390000000    -0.188919   
N53      N      0.803710000000     0.812520000000     0.964480000000    -0.181212   
N54      N      0.609470000000     0.631890000000     0.019110000000    -0.195103   
N55      N      0.153550000000     0.139470000000     0.990970000000    -0.181563   
N56      N      0.344960000000     0.314680000000     0.926320000000    -0.191973   
N57      N      0.877760000000     0.018700000000     0.056290000000    -0.188313   
N58      N      0.658880000000     0.984090000000     0.019270000000    -0.186313   
N59      N      0.283470000000     0.938700000000     0.939320000000    -0.178302   
N60      N      0.075680000000     0.919990000000     0.898470000000    -0.192297   
N61      N      0.008020000000     0.649160000000     0.989690000000    -0.186266   
N62      N      0.994610000000     0.822850000000     0.995050000000    -0.197902   
N63      N      0.967250000000     0.133890000000     0.959490000000    -0.188098   
N64      N      0.951750000000     0.305410000000     0.978290000000    -0.19932    
O1       O      0.111550000000     0.076610000000     0.971190000000    -0.385697   
O2       O      0.081130000000     0.098120000000     0.007380000000    -0.337313   
O3       O      0.925030000000     0.975300000000     0.866920000000    -0.370262   
O4       O      0.926990000000     0.915370000000     0.877970000000    -0.368622   
O5       O      0.960610000000     0.080260000000     0.932850000000    -0.370236   
O6       O      0.997160000000     0.096230000000     0.986700000000    -0.362682   
O7       O      0.061550000000     0.971230000000     0.905200000000    -0.384805   
O8       O      0.009210000000     0.906060000000     0.918480000000    -0.348665   
O9       O      0.102380000000     0.058020000000     0.901920000000    -0.339626   
O10      O      0.121560000000     0.998520000000     0.971720000000    -0.541318   
O11      O      0.993240000000     0.063040000000     0.870950000000    -0.525969   
O12      O      0.883880000000     0.015270000000     0.896150000000    -0.332736   
O13      O      0.020570000000     0.045560000000     0.952100000000    -0.489062   
O14      O      0.993530000000     0.981910000000     0.915960000000    -0.640487   
O15      O      0.002940000000     0.879050000000     0.018120000000    -0.384841   
O16      O      0.961580000000     0.858190000000     0.966910000000    -0.361351   
O17      O      0.910520000000     0.979450000000     0.056030000000    -0.34383    
O18      O      0.948930000000     0.045740000000     0.039940000000    -0.348672   
O19      O      0.845160000000     0.876100000000     0.983250000000    -0.380152   
O20      O      0.875480000000     0.854840000000     0.946860000000    -0.346818   
O21      O      0.025220000000     0.976210000000     0.088190000000    -0.3667     
O22      O      0.027480000000     0.037480000000     0.075970000000    -0.345841   
O23      O      0.961920000000     0.886190000000     0.080150000000    -0.530658   
O24      O      0.072370000000     0.941770000000     0.059880000000    -0.340443   
O25      O      0.841510000000     0.895290000000     0.045880000000    -0.323666   
O26      O      0.837100000000     0.960770000000     0.985780000000    -0.537551   
O27      O      0.934910000000     0.907920000000     0.001920000000    -0.632415   
O28      O      0.961960000000     0.971850000000     0.037970000000    -0.482562   
O29      O      0.018420000000     0.943170000000     0.975290000000    -0.496643   
O30      O      0.936460000000     0.010570000000     0.978510000000    -0.633177   
O31      O      0.048230000000     0.006630000000     0.011330000000    -0.642465   
O32      O      0.907660000000     0.947000000000     0.942690000000    -0.50003    
O33      O      0.965480000000     0.873880000000     0.439100000000    -0.376587   
O34      O      0.037290000000     0.921500000000     0.432570000000    -0.361755   
O35      O      0.858950000000     0.983320000000     0.416300000000    -0.360022   
O36      O      0.844380000000     0.976690000000     0.474260000000    -0.34407    
O37      O      0.976580000000     0.002130000000     0.361860000000    -0.382665   
O38      O      0.036940000000     0.994490000000     0.378640000000    -0.368197   
O39      O      0.851540000000     0.864670000000     0.488320000000    -0.363751   
O40      O      0.841960000000     0.906270000000     0.520980000000    -0.338325   
O41      O      0.880600000000     0.847550000000     0.429790000000    -0.314158   
O42      O      0.927530000000     0.845250000000     0.515160000000    -0.531711   
O43      O      0.884260000000     0.951350000000     0.366240000000    -0.522718   
O44      O      0.939530000000     0.056860000000     0.381510000000    -0.33964    
O45      O      0.963020000000     0.947750000000     0.424500000000    -0.49491    
O46      O      0.898150000000     0.942360000000     0.457530000000    -0.644463   
O47      O      0.964420000000     0.952880000000     0.590980000000    -0.373558   
O48      O      0.905650000000     0.962350000000     0.574410000000    -0.347308   
O49      O      0.091260000000     0.095530000000     0.462220000000    -0.377736   
O50      O      0.104330000000     0.054940000000     0.431610000000    -0.353859   
O51      O      0.980710000000     0.087490000000     0.515490000000    -0.379797   
O52      O      0.910050000000     0.039310000000     0.525690000000    -0.330084   
O53      O      0.089890000000     0.988240000000     0.536620000000    -0.339767   
O54      O      0.104410000000     0.993370000000     0.479150000000    -0.362798   
O55      O      0.048830000000     0.009420000000     0.591540000000    -0.514446   
O56      O      0.014740000000     0.908600000000     0.571190000000    -0.340658   
O57      O      0.069400000000     0.113330000000     0.522580000000    -0.332114   
O58      O      0.016190000000     0.117180000000     0.440430000000    -0.530338   
O59      O      0.982210000000     0.013980000000     0.529080000000    -0.636791   
O60      O      0.047500000000     0.019510000000     0.495850000000    -0.491545   
O61      O      0.936370000000     0.929580000000     0.523590000000    -0.497537   
O62      O      0.009040000000     0.032180000000     0.429900000000    -0.627917   
O63      O      0.003110000000     0.934970000000     0.490800000000    -0.627898   
O64      O      0.942020000000     0.026860000000     0.463100000000    -0.490753   
O65      O      0.972040000000     0.359980000000     0.009790000000    -0.379562   
O66      O      0.962980000000     0.365580000000     0.949710000000    -0.379058   
O67      O      0.875910000000     0.449790000000     0.046270000000    -0.390623   
O68      O      0.914060000000     0.517230000000     0.043660000000    -0.35243    
O69      O      0.853340000000     0.369700000000     0.958710000000    -0.38114    
O70      O      0.898220000000     0.370330000000     0.919650000000    -0.353994   
O71      O      0.002280000000     0.445250000000     0.094950000000    -0.373968   
O72      O      0.993200000000     0.501230000000     0.094010000000    -0.384037   
O73      O      0.958000000000     0.365120000000     0.078290000000    -0.329768   
O74      O      0.061860000000     0.423670000000     0.051190000000    -0.533446   
O75      O      0.825650000000     0.372100000000     0.020590000000    -0.51915    
O76      O      0.830820000000     0.446200000000     0.963240000000    -0.356902   
O77      O      0.935820000000     0.404380000000     0.989600000000    -0.494285   
O78      O      0.942830000000     0.447450000000     0.038990000000    -0.628186   
O79      O      0.103640000000     0.576280000000     0.015550000000    -0.359407   
O80      O      0.054770000000     0.579250000000     0.048330000000    -0.355117   
O81      O      0.948580000000     0.507220000000     0.872930000000    -0.354978   
O82      O      0.955850000000     0.450600000000     0.872780000000    -0.375654   
O83      O      0.984820000000     0.594490000000     0.956650000000    -0.362383   
O84      O      0.990910000000     0.586610000000     0.016700000000    -0.374204   
O85      O      0.065560000000     0.505320000000     0.915460000000    -0.352421   
O86      O      0.036250000000     0.439430000000     0.911430000000    -0.359937   
O87      O      0.129360000000     0.582160000000     0.949870000000    -0.526896   
O88      O      0.124880000000     0.500780000000     0.995210000000    -0.355118   
O89      O      0.008380000000     0.580650000000     0.886840000000    -0.296598   
O90      O      0.901430000000     0.540160000000     0.916400000000    -0.522465   
O91      O      0.020960000000     0.547320000000     0.978120000000    -0.640184   
O92      O      0.012800000000     0.503620000000     0.929230000000    -0.469132   
O93      O      0.035110000000     0.495780000000     0.030610000000    -0.49569    
O94      O      0.919580000000     0.457090000000     0.936820000000    -0.634214   
O95      O      0.027210000000     0.448430000000     0.980430000000    -0.624077   
O96      O      0.927450000000     0.502480000000     0.985930000000    -0.487539   
O97      O      0.946800000000     0.357920000000     0.534870000000    -0.361694   
O98      O      0.974930000000     0.362670000000     0.482390000000    -0.342498   
O99      O      0.840510000000     0.460100000000     0.491090000000    -0.368604   
O100     O      0.885070000000     0.521290000000     0.514180000000    -0.34776    
O101     O      0.867680000000     0.388710000000     0.421400000000    -0.390262   
O102     O      0.912170000000     0.362600000000     0.440820000000    -0.348979   
O103     O      0.940340000000     0.453770000000     0.590850000000    -0.378162   
O104     O      0.948880000000     0.517880000000     0.577700000000    -0.362201   
O105     O      0.892190000000     0.372030000000     0.574780000000    -0.328309   
O106     O      0.006770000000     0.421330000000     0.589590000000    -0.535542   
O107     O      0.816260000000     0.380170000000     0.476800000000    -0.518884   
O108     O      0.844910000000     0.460560000000     0.411550000000    -0.339391   
O109     O      0.922880000000     0.406960000000     0.486960000000    -0.500672   
O110     O      0.913840000000     0.458030000000     0.518680000000    -0.633179   
O111     O      0.067040000000     0.562220000000     0.548480000000    -0.351349   
O112     O      0.026110000000     0.592320000000     0.533260000000    -0.350547   
O113     O      0.010760000000     0.505490000000     0.374540000000    -0.356149   
O114     O      0.995970000000     0.439270000000     0.388220000000    -0.375653   
O115     O      0.995060000000     0.598980000000     0.428120000000    -0.360811   
O116     O      0.969330000000     0.594800000000     0.481670000000    -0.337711   
O117     O      0.078490000000     0.497530000000     0.452720000000    -0.331273   
O118     O      0.055410000000     0.432030000000     0.453260000000    -0.336542   
O119     O      0.130050000000     0.580820000000     0.492200000000    -0.533844   
O120     O      0.108710000000     0.497510000000     0.542570000000    -0.345107   
O121     O      0.057730000000     0.589690000000     0.398230000000    -0.312829   
O122     O      0.943550000000     0.537600000000     0.370740000000    -0.534848   
O123     O      0.020840000000     0.551100000000     0.477910000000    -0.629151   
O124     O      0.029490000000     0.498800000000     0.446720000000    -0.444481   
O125     O      0.002200000000     0.497930000000     0.540190000000    -0.473559   
O126     O      0.942190000000     0.460230000000     0.423540000000    -0.625349   
O127     O      0.015770000000     0.446140000000     0.508760000000    -0.627276   
O128     O      0.929630000000     0.512890000000     0.455780000000    -0.491901   
O129     O      0.351420000000     0.951940000000     0.923260000000    -0.367953   
O130     O      0.342340000000     0.955140000000     0.980420000000    -0.34063    
O131     O      0.472890000000     0.863490000000     0.949050000000    -0.381728   
O132     O      0.539640000000     0.914040000000     0.931160000000    -0.356626   
O133     O      0.374480000000     0.854110000000     0.018840000000    -0.382734   
O134     O      0.350100000000     0.898040000000     0.028290000000    -0.337503   
O135     O      0.473150000000     0.988150000000     0.862180000000    -0.345553   
O136     O      0.537100000000     0.986720000000     0.878190000000    -0.360038   
O137     O      0.383780000000     0.919060000000     0.871740000000    -0.336593   
O138     O      0.412490000000     0.021870000000     0.880660000000    -0.523754   
O139     O      0.378610000000     0.835720000000     0.949540000000    -0.526911   
O140     O      0.451740000000     0.839950000000     0.022970000000    -0.337946   
O141     O      0.400290000000     0.926110000000     0.964920000000    -0.501485   
O142     O      0.464400000000     0.931670000000     0.929900000000    -0.633562   
O143     O      0.580140000000     0.090670000000     0.939250000000    -0.371934   
O144     O      0.602820000000     0.046660000000     0.927000000000    -0.337791   
O145     O      0.482550000000     0.965860000000     0.093620000000    -0.378368   
O146     O      0.416240000000     0.961880000000     0.077060000000    -0.348373   
O147     O      0.594590000000     0.978870000000     0.034950000000    -0.365688   
O148     O      0.604810000000     0.979530000000     0.976860000000    -0.353446   
O149     O      0.466800000000     0.081840000000     0.989770000000    -0.367104   
O150     O      0.409250000000     0.030620000000     0.019960000000    -0.329418   
O151     O      0.563480000000     0.101190000000     0.017040000000    -0.53027    
O152     O      0.520570000000     0.116140000000     0.933880000000    -0.319354   
O153     O      0.575740000000     0.033730000000     0.074540000000    -0.348888   
O154     O      0.532040000000     0.926300000000     0.085110000000    -0.524128   
O155     O      0.552060000000     0.019510000000     0.990310000000    -0.630639   
O156     O      0.487030000000     0.014380000000     0.025600000000    -0.498027   
O157     O      0.503300000000     0.017110000000     0.925630000000    -0.48913    
O158     O      0.448750000000     0.928250000000     0.029830000000    -0.637402   
O159     O      0.438750000000     0.011230000000     0.959520000000    -0.641354   
O160     O      0.513200000000     0.933780000000     0.995720000000    -0.494725   
O161     O      0.443170000000     0.064350000000     0.438950000000    -0.358397   
O162     O      0.486990000000     0.086320000000     0.488850000000    -0.369811   
O163     O      0.339300000000     0.866290000000     0.487590000000    -0.386382   
O164     O      0.369620000000     0.842530000000     0.453170000000    -0.363905   
O165     O      0.392590000000     0.971290000000     0.554740000000    -0.383188   
O166     O      0.438790000000     0.036610000000     0.536370000000    -0.345087   
O167     O      0.422270000000     0.966110000000     0.370150000000    -0.370669   
O168     O      0.421990000000     0.905180000000     0.380490000000    -0.363394   
O169     O      0.363800000000     0.987610000000     0.405930000000    -0.328322   
O170     O      0.467910000000     0.053150000000     0.374600000000    -0.520057   
O171     O      0.325500000000     0.935550000000     0.498660000000    -0.53334    
O172     O      0.362240000000     0.881210000000     0.561400000000    -0.335954   
O173     O      0.429050000000     0.997910000000     0.484220000000    -0.494019   
O174     O      0.399950000000     0.933290000000     0.448560000000    -0.636112   
O175     O      0.531370000000     0.963880000000     0.397110000000    -0.355975   
O176     O      0.499450000000     0.897660000000     0.412990000000    -0.353631   
O177     O      0.530880000000     0.972530000000     0.587510000000    -0.372483   
O178     O      0.525990000000     0.031110000000     0.577050000000    -0.363708   
O179     O      0.507080000000     0.873780000000     0.518410000000    -0.384426   
O180     O      0.462320000000     0.850020000000     0.469060000000    -0.370975   
O181     O      0.597580000000     0.074990000000     0.460840000000    -0.384605   
O182     O      0.573760000000     0.091500000000     0.506100000000    -0.344985   
O183     O      0.615260000000     0.993570000000     0.464810000000    -0.537892   
O184     O      0.600670000000     0.048510000000     0.400530000000    -0.335423   
O185     O      0.578080000000     0.941060000000     0.555100000000    -0.329615   
O186     O      0.470050000000     0.881310000000     0.582420000000    -0.532522   
O187     O      0.516110000000     0.937380000000     0.474180000000    -0.625537   
O188     O      0.545120000000     0.001620000000     0.509400000000    -0.492807   
O189     O      0.482600000000     0.971170000000     0.417850000000    -0.472264   
O190     O      0.461500000000     0.963140000000     0.541040000000    -0.640113   
O191     O      0.509710000000     0.036110000000     0.452540000000    -0.631132   
O192     O      0.434780000000     0.898120000000     0.505860000000    -0.495055   
O193     O      0.457230000000     0.357500000000     0.021070000000    -0.36939    
O194     O      0.481770000000     0.360810000000     0.967280000000    -0.356994   
O195     O      0.347220000000     0.461490000000     0.972580000000    -0.37594    
O196     O      0.394460000000     0.524620000000     0.991280000000    -0.356861   
O197     O      0.372550000000     0.382690000000     0.909530000000    -0.379536   
O198     O      0.419810000000     0.359250000000     0.927360000000    -0.34108    
O199     O      0.449880000000     0.454650000000     0.075970000000    -0.379237   
O200     O      0.456620000000     0.517820000000     0.060610000000    -0.370711   
O201     O      0.400790000000     0.371030000000     0.061460000000    -0.334138   
O202     O      0.514820000000     0.421450000000     0.075760000000    -0.533702   
O203     O      0.324990000000     0.376210000000     0.970750000000    -0.524512   
O204     O      0.344060000000     0.447230000000     0.897780000000    -0.347332   
O205     O      0.429760000000     0.404210000000     0.973460000000    -0.505647   
O206     O      0.420230000000     0.455950000000     0.004560000000    -0.629755   
O207     O      0.577940000000     0.562370000000     0.030090000000    -0.372105   
O208     O      0.534180000000     0.590110000000     0.015070000000    -0.360352   
O209     O      0.510710000000     0.497960000000     0.858160000000    -0.369572   
O210     O      0.501140000000     0.433970000000     0.874090000000    -0.361544   
O211     O      0.494820000000     0.592700000000     0.910400000000    -0.34509    
O212     O      0.477900000000     0.592890000000     0.966160000000    -0.355794   
O213     O      0.598910000000     0.498470000000     0.941550000000    -0.345011   
O214     O      0.562140000000     0.430380000000     0.943390000000    -0.361011   
O215     O      0.636040000000     0.578290000000     0.972410000000    -0.525711   
O216     O      0.614800000000     0.497520000000     0.027750000000    -0.358494   
O217     O      0.558260000000     0.582190000000     0.875300000000    -0.324834   
O218     O      0.444400000000     0.528840000000     0.854390000000    -0.525804   
O219     O      0.526870000000     0.548400000000     0.959840000000    -0.632782   
O220     O      0.535520000000     0.495940000000     0.929390000000    -0.476498   
O221     O      0.510030000000     0.496740000000     0.023610000000    -0.482523   
O222     O      0.446120000000     0.455320000000     0.909170000000    -0.629397   
O223     O      0.522650000000     0.444480000000     0.993630000000    -0.633038   
O224     O      0.434380000000     0.508090000000     0.940130000000    -0.493789   
O225     O      0.465890000000     0.360390000000     0.492890000000    -0.380548   
O226     O      0.469840000000     0.370980000000     0.433050000000    -0.371718   
O227     O      0.359620000000     0.476320000000     0.492430000000    -0.373668   
O228     O      0.413080000000     0.522180000000     0.528400000000    -0.338582   
O229     O      0.352980000000     0.380810000000     0.429380000000    -0.355737   
O230     O      0.404820000000     0.376160000000     0.402100000000    -0.350966   
O231     O      0.491230000000     0.442600000000     0.578920000000    -0.383317   
O232     O      0.486480000000     0.500640000000     0.578800000000    -0.378358   
O233     O      0.419800000000     0.364320000000     0.553300000000    -0.353453   
O234     O      0.531970000000     0.402270000000     0.548030000000    -0.528323   
O235     O      0.334640000000     0.386770000000     0.503900000000    -0.529777   
O236     O      0.328330000000     0.444890000000     0.426640000000    -0.310635   
O237     O      0.430780000000     0.408500000000     0.467930000000    -0.500012   
O238     O      0.432290000000     0.451080000000     0.517970000000    -0.63453    
O239     O      0.604140000000     0.576230000000     0.508310000000    -0.376495   
O240     O      0.552730000000     0.580620000000     0.536400000000    -0.339057   
O241     O      0.471260000000     0.521520000000     0.356140000000    -0.35717    
O242     O      0.470170000000     0.460590000000     0.356470000000    -0.375434   
O243     O      0.498800000000     0.603530000000     0.444650000000    -0.371524   
O244     O      0.494650000000     0.590880000000     0.504200000000    -0.354493   
O245     O      0.572520000000     0.506970000000     0.409830000000    -0.341496   
O246     O      0.542920000000     0.442400000000     0.400910000000    -0.360294   
O247     O      0.642960000000     0.574850000000     0.456340000000    -0.525077   
O248     O      0.616820000000     0.489290000000     0.497610000000    -0.368543   
O249     O      0.535030000000     0.597440000000     0.380610000000    -0.338617   
O250     O      0.423000000000     0.557610000000     0.393230000000    -0.518317   
O251     O      0.527590000000     0.550890000000     0.467530000000    -0.638735   
O252     O      0.524120000000     0.508960000000     0.418190000000    -0.44932    
O253     O      0.527620000000     0.491800000000     0.520740000000    -0.498976   
O254     O      0.430110000000     0.468820000000     0.414710000000    -0.638087   
O255     O      0.523570000000     0.447330000000     0.470650000000    -0.625007   
O256     O      0.434570000000     0.511340000000     0.464930000000    -0.489213   
O257     O      0.425040000000     0.375900000000     0.841240000000    -0.165654   
O258     O      0.444730000000     0.340180000000     0.793870000000    -0.268075   
O259     O      0.497120000000     0.366090000000     0.853610000000    -0.164929   
O260     O      0.451040000000     0.579590000000     0.319380000000    -0.168538   
O261     O      0.381610000000     0.544610000000     0.272300000000    -0.26704    
O262     O      0.384870000000     0.502790000000     0.334990000000    -0.186156   
O263     O      0.503860000000     0.611760000000     0.571310000000    -0.157774   
O264     O      0.475720000000     0.666260000000     0.574920000000    -0.269602   
O265     O      0.432340000000     0.604860000000     0.531940000000    -0.144151   
O266     O      0.358820000000     0.043320000000     0.452390000000    -0.179503   
O267     O      0.332290000000     0.094300000000     0.415220000000    -0.277908   
O268     O      0.386600000000     0.074610000000     0.386440000000    -0.174929   
O269     O      0.499350000000     0.069300000000     0.842260000000    -0.17421    
O270     O      0.479440000000     0.082130000000     0.772750000000    -0.270166   
O271     O      0.423750000000     0.012570000000     0.810810000000    -0.174302   
O272     O      0.336320000000     0.949270000000     0.096580000000    -0.138632   
O273     O      0.347690000000     0.996080000000     0.149320000000    -0.265373   
O274     O      0.408320000000     0.023950000000     0.099660000000    -0.16892    
O275     O      0.464110000000     0.668530000000     0.822000000000    -0.174778   
O276     O      0.512950000000     0.630710000000     0.842750000000    -0.25884    
O277     O      0.429350000000     0.598260000000     0.863940000000    -0.162946   
O278     O      0.359070000000     0.042000000000     0.947310000000    -0.167306   
O279     O      0.356450000000     0.110000000000     0.917280000000    -0.267217   
O280     O      0.431400000000     0.104570000000     0.918200000000    -0.188842   
O281     O      0.640500000000     0.099000000000     0.560320000000    -0.156687   
O282     O      0.690850000000     0.177130000000     0.578280000000    -0.267236   
O283     O      0.604350000000     0.148340000000     0.557330000000    -0.168469   
O284     O      0.153890000000     0.572300000000     0.578330000000    -0.170326   
O285     O      0.198910000000     0.643990000000     0.608930000000    -0.265842   
O286     O      0.110220000000     0.597780000000     0.613810000000    -0.161578   
O287     O      0.813360000000     0.423340000000     0.563410000000    -0.179012   
O288     O      0.728810000000     0.402180000000     0.573480000000    -0.264351   
O289     O      0.747580000000     0.374880000000     0.518590000000    -0.187729   
O290     O      0.340500000000     0.566110000000     0.425340000000    -0.179401   
O291     O      0.383930000000     0.622220000000     0.473590000000    -0.257748   
O292     O      0.411670000000     0.569170000000     0.462150000000    -0.160743   
O293     O      0.923870000000     0.563080000000     0.837140000000    -0.145631   
O294     O      0.853770000000     0.524750000000     0.791390000000    -0.26487    
O295     O      0.861590000000     0.485030000000     0.854080000000    -0.1868     
O296     O      0.100900000000     0.542890000000     0.373550000000    -0.154813   
O297     O      0.132740000000     0.573290000000     0.308410000000    -0.265075   
O298     O      0.066870000000     0.583630000000     0.328750000000    -0.168645   
O299     O      0.673820000000     0.041610000000     0.913620000000    -0.1569     
O300     O      0.752360000000     0.096050000000     0.942900000000    -0.274384   
O301     O      0.677670000000     0.066300000000     0.978300000000    -0.186213   
O302     O      0.194810000000     0.588920000000     0.019350000000    -0.174865   
O303     O      0.231480000000     0.610200000000     0.084970000000    -0.266394   
O304     O      0.145200000000     0.553200000000     0.076240000000    -0.181748   
O305     O      0.682190000000     0.569690000000     0.915370000000    -0.166401   
O306     O      0.730370000000     0.543180000000     0.886780000000    -0.264319   
O307     O      0.641160000000     0.504940000000     0.875790000000    -0.161605   
O308     O      0.328170000000     0.450550000000     0.053910000000    -0.171165   
O309     O      0.240850000000     0.422880000000     0.059310000000    -0.262459   
O310     O      0.268320000000     0.390880000000     0.013850000000    -0.182947   
O311     O      0.789750000000     0.814820000000     0.423480000000    -0.160647   
O312     O      0.711220000000     0.812380000000     0.424700000000    -0.270372   
O313     O      0.787040000000     0.882240000000     0.437470000000    -0.194739   
O314     O      0.309250000000     0.392670000000     0.364260000000    -0.16846    
O315     O      0.224690000000     0.331080000000     0.358170000000    -0.273759   
O316     O      0.259420000000     0.362080000000     0.421730000000    -0.161685   
O317     O      0.843340000000     0.053940000000     0.470650000000    -0.162878   
O318     O      0.764950000000     0.039150000000     0.492340000000    -0.273873   
O319     O      0.803030000000     0.993590000000     0.522160000000    -0.154653   
O320     O      0.112860000000     0.975550000000     0.605210000000    -0.163629   
O321     O      0.191280000000     0.037840000000     0.626350000000    -0.270556   
O322     O      0.137860000000     0.053420000000     0.577280000000    -0.180964   
O323     O      0.919000000000     0.616200000000     0.516440000000    -0.156377   
O324     O      0.878030000000     0.650660000000     0.471700000000    -0.274494   
O325     O      0.888640000000     0.589590000000     0.450910000000    -0.177931   
O326     O      0.055880000000     0.370400000000     0.516370000000    -0.179767   
O327     O      0.070350000000     0.311250000000     0.497030000000    -0.273567   
O328     O      0.030390000000     0.345230000000     0.450070000000    -0.164976   
O329     O      0.821060000000     0.930420000000     0.590210000000    -0.147909   
O330     O      0.812930000000     0.965730000000     0.644450000000    -0.266304   
O331     O      0.878090000000     0.010130000000     0.599070000000    -0.163555   
O332     O      0.016540000000     0.096970000000     0.101030000000    -0.138499   
O333     O      0.081800000000     0.137550000000     0.149780000000    -0.262223   
O334     O      0.098510000000     0.108730000000     0.094790000000    -0.157082   
O335     O      0.883470000000     0.786790000000     0.987020000000    -0.169437   
O336     O      0.830060000000     0.717640000000     0.954460000000    -0.271566   
O337     O      0.866360000000     0.791290000000     0.916030000000    -0.16551    
O338     O      0.090420000000     0.164000000000     0.035190000000    -0.131397   
O339     O      0.129230000000     0.236580000000     0.995880000000    -0.265895   
O340     O      0.075360000000     0.166660000000     0.964050000000    -0.156965   
O341     O      0.912800000000     0.997630000000     0.131930000000    -0.150957   
O342     O      0.829760000000     0.967880000000     0.152700000000    -0.268026   
O343     O      0.848910000000     0.923590000000     0.113520000000    -0.170708   
O344     O      0.311390000000     0.999260000000     0.007260000000    -0.132281   
O345     O      0.227340000000     0.951460000000     0.025490000000    -0.268858   
O346     O      0.283660000000     0.920720000000     0.032330000000    -0.154438   
O347     O      0.002470000000     0.649480000000     0.895060000000    -0.14388    
O348     O      0.082210000000     0.716410000000     0.903940000000    -0.266206   
O349     O      0.068940000000     0.642080000000     0.933360000000    -0.198585   
O350     O      0.938910000000     0.115450000000     0.868140000000    -0.161382   
O351     O      0.989100000000     0.198090000000     0.861220000000    -0.26935    
O352     O      0.024380000000     0.150550000000     0.891650000000    -0.160813   
S1       S      0.466220000000     0.376780000000     0.822540000000     0.274828   
S2       S      0.415100000000     0.535660000000     0.303000000000     0.278472   
S3       S      0.481860000000     0.637880000000     0.547470000000     0.278441   
S4       S      0.374620000000     0.084370000000     0.423810000000     0.275963   
S5       S      0.476300000000     0.046270000000     0.805350000000     0.277367   
S6       S      0.373710000000     0.982520000000     0.123480000000     0.275      
S7       S      0.475330000000     0.641520000000     0.855270000000     0.273287   
S8       S      0.388250000000     0.092410000000     0.940960000000     0.266628   
S9       S      0.649590000000     0.146650000000     0.550780000000     0.272463   
S10      S      0.151240000000     0.612870000000     0.587510000000     0.270393   
S11      S      0.765450000000     0.414260000000     0.542810000000     0.272404   
S12      S      0.367870000000     0.574070000000     0.464540000000     0.275149   
S13      S      0.889550000000     0.518330000000     0.821330000000     0.275335   
S14      S      0.087070000000     0.551590000000     0.331580000000     0.274345   
S15      S      0.698060000000     0.080860000000     0.938570000000     0.272585   
S16      S      0.185260000000     0.596480000000     0.058620000000     0.272255   
S17      S      0.682520000000     0.528360000000     0.905110000000     0.271791   
S18      S      0.279900000000     0.433450000000     0.031320000000     0.270911   
S19      S      0.762720000000     0.831700000000     0.443400000000     0.268272   
S20      S      0.270760000000     0.350730000000     0.384910000000     0.276195   
S21      S      0.795110000000     0.017420000000     0.484700000000     0.271804   
S22      S      0.154950000000     0.019820000000     0.591560000000     0.276308   
S23      S      0.911770000000     0.630220000000     0.474300000000     0.268563   
S24      S      0.035310000000     0.330440000000     0.492440000000     0.275109   
S25      S      0.849260000000     0.964180000000     0.619890000000     0.276445   
S26      S      0.061090000000     0.098980000000     0.123180000000     0.279174   
S27      S      0.845340000000     0.767610000000     0.954560000000     0.272934   
S28      S      0.112820000000     0.186250000000     0.996860000000     0.273763   
S29      S      0.859820000000     0.970500000000     0.119840000000     0.271511   
S30      S      0.269450000000     0.952050000000     0.007190000000     0.277993   
S31      S      0.045370000000     0.671310000000     0.923460000000     0.277254   
S32      S      0.979290000000     0.155300000000     0.887410000000     0.270434   
Zr1      Zr     0.060870000000     0.010570000000     0.950540000000     1.39886    
Zr2      Zr     0.952040000000     0.015340000000     0.918660000000     1.40081    
Zr3      Zr     0.003500000000     0.938720000000     0.035250000000     1.39948    
Zr4      Zr     0.894450000000     0.942920000000     0.003390000000     1.38147    
Zr5      Zr     0.005730000000     0.039980000000     0.012880000000     1.40176    
Zr6      Zr     0.950290000000     0.913530000000     0.941040000000     1.37951    
Zr7      Zr     0.927780000000     0.897620000000     0.471450000000     1.3924     
Zr8      Zr     0.933500000000     0.993380000000     0.411680000000     1.38711    
Zr9      Zr     0.011870000000     0.968780000000     0.542030000000     1.39329    
Zr10     Zr     0.017300000000     0.063800000000     0.482120000000     1.40104    
Zr11     Zr     0.039110000000     0.986430000000     0.443680000000     1.35385    
Zr12     Zr     0.906300000000     0.975200000000     0.509820000000     1.3836     
Zr13     Zr     0.993040000000     0.423570000000     0.035070000000     1.38237    
Zr14     Zr     0.886770000000     0.429860000000     0.992060000000     1.37915    
Zr15     Zr     0.069040000000     0.521100000000     0.975740000000     1.38833    
Zr16     Zr     0.964150000000     0.529710000000     0.932470000000     1.41244    
Zr17     Zr     0.968900000000     0.430840000000     0.934090000000     1.37567    
Zr18     Zr     0.984260000000     0.520730000000     0.032140000000     1.37912    
Zr19     Zr     0.955390000000     0.425640000000     0.543770000000     1.3878     
Zr20     Zr     0.883530000000     0.440790000000     0.460530000000     1.39466    
Zr21     Zr     0.061940000000     0.518750000000     0.503820000000     1.3673     
Zr22     Zr     0.990130000000     0.532380000000     0.420470000000     1.38276    
Zr23     Zr     0.982110000000     0.425830000000     0.450750000000     1.37474    
Zr24     Zr     0.960360000000     0.530860000000     0.514280000000     1.37916    
Zr25     Zr     0.427810000000     0.970610000000     0.913240000000     1.39924    
Zr26     Zr     0.437770000000     0.888450000000     0.982600000000     1.39415    
Zr27     Zr     0.514160000000     0.057150000000     0.972780000000     1.39465    
Zr28     Zr     0.523840000000     0.975210000000     0.042040000000     1.38184    
Zr29     Zr     0.411240000000     0.966920000000     0.012130000000     1.38809    
Zr30     Zr     0.540670000000     0.978110000000     0.943140000000     1.36743    
Zr31     Zr     0.438900000000     0.001660000000     0.423410000000     1.40255    
Zr32     Zr     0.391960000000     0.930260000000     0.510280000000     1.39666    
Zr33     Zr     0.552980000000     0.004630000000     0.447640000000     1.38037    
Zr34     Zr     0.505790000000     0.933240000000     0.535250000000     1.38939    
Zr35     Zr     0.499800000000     0.031640000000     0.514520000000     1.37837    
Zr36     Zr     0.444340000000     0.902140000000     0.443880000000     1.36299    
Zr37     Zr     0.463190000000     0.424520000000     0.029530000000     1.38455    
Zr38     Zr     0.388490000000     0.436060000000     0.947250000000     1.39567    
Zr39     Zr     0.568480000000     0.516650000000     0.986130000000     1.3773     
Zr40     Zr     0.493410000000     0.527340000000     0.903610000000     1.40128    
Zr41     Zr     0.488420000000     0.423510000000     0.936430000000     1.3919     
Zr42     Zr     0.467560000000     0.528660000000     0.997360000000     1.37339    
Zr43     Zr     0.478140000000     0.420620000000     0.519600000000     1.38892    
Zr44     Zr     0.386680000000     0.439960000000     0.464620000000     1.41006    
Zr45     Zr     0.571240000000     0.519030000000     0.470630000000     1.36501    
Zr46     Zr     0.479720000000     0.540740000000     0.416370000000     1.40581    
Zr47     Zr     0.474790000000     0.436570000000     0.418100000000     1.37673    
Zr48     Zr     0.482040000000     0.522990000000     0.516900000000     1.39686    


