data_structure

_audit_creation_method RASPA-1.0
_audit_creation_date 2023-6-4
_audit_author_name 'Poobodin Mano'

_cell_length_a    34.2184
_cell_length_b    37.5417
_cell_length_c    37.9707
_cell_angle_alpha 82.7632
_cell_angle_beta  96.3238
_cell_angle_gamma 119.442
_cell_volume      42074.2

_symmetry_cell_setting          triclinic
_symmetry_space_group_name_Hall 'P 1'
_symmetry_space_group_name_H-M  'P 1'
_symmetry_Int_Tables_number     1

_symmetry_equiv_pos_as_xyz 'x,y,z'

loop_
_atom_site_label
_atom_site_type_symbol
_atom_site_fract_x
_atom_site_fract_y
_atom_site_fract_z
_atom_site_charge
C1       C      0.129350000000     0.089960000000     0.984220000000     0.398236   
C2       C      0.918530000000     0.942550000000     0.852500000000     0.390975   
C3       C      0.021950000000     0.115350000000     0.948990000000     0.406628   
C4       C      0.036290000000     0.914730000000     0.904320000000     0.391069   
C5       C      0.949810000000     0.833380000000     0.992540000000     0.403766   
C6       C      0.933460000000     0.027410000000     0.048530000000     0.376657   
C7       C      0.833070000000     0.857310000000     0.960750000000     0.394358   
C8       C      0.036020000000     0.001000000000     0.094260000000     0.399359   
C9       C      0.007890000000     0.877480000000     0.425780000000     0.389485   
C10      C      0.832220000000     0.966710000000     0.439370000000     0.388967   
C11      C      0.015440000000     0.995900000000     0.350690000000     0.391707   
C12      C      0.832540000000     0.867200000000     0.510460000000     0.393554   
C13      C      0.937780000000     0.953630000000     0.595750000000     0.392908   
C14      C      0.123730000000     0.079580000000     0.443280000000     0.395833   
C15      C      0.944030000000     0.071570000000     0.518090000000     0.392844   
C16      C      0.125220000000     0.993830000000     0.506720000000     0.392667   
C17      C      0.033440000000     0.372550000000     0.958050000000     0.401178   
C18      C      0.882700000000     0.466740000000     0.040370000000     0.402299   
C19      C      0.886160000000     0.349320000000     0.917000000000     0.394485   
C20      C      0.026730000000     0.477250000000     0.094480000000     0.398169   
C21      C      0.098930000000     0.602080000000     0.018980000000     0.396335   
C22      C      0.965800000000     0.480030000000     0.841170000000     0.403432   
C23      C      0.952770000000     0.579790000000     0.978560000000     0.402715   
C24      C      0.091810000000     0.494250000000     0.886340000000     0.38458    
C25      C      0.956910000000     0.336910000000     0.495600000000     0.386299   
C26      C      0.864720000000     0.508750000000     0.482030000000     0.402981   
C27      C      0.874430000000     0.350470000000     0.418730000000     0.402593   
C28      C      0.946010000000     0.484450000000     0.583730000000     0.396848   
C29      C      0.083800000000     0.598510000000     0.522830000000     0.393116   
C30      C      0.016120000000     0.466900000000     0.350850000000     0.398299   
C31      C      0.000830000000     0.614240000000     0.437820000000     0.384944   
C32      C      0.094890000000     0.456120000000     0.443500000000     0.377337   
C33      C      0.331130000000     0.950870000000     0.951820000000     0.393019   
C34      C      0.535600000000     0.888710000000     0.964510000000     0.378101   
C35      C      0.352560000000     0.869050000000     0.036830000000     0.390672   
C36      C      0.515610000000     0.987470000000     0.859480000000     0.394067   
C37      C      0.616120000000     0.088900000000     0.928010000000     0.393328   
C38      C      0.453820000000     0.973530000000     0.104670000000     0.394568   
C39      C      0.634660000000     0.999790000000     0.013630000000     0.390887   
C40      C      0.454130000000     0.072460000000     0.026810000000     0.381139   
C41      C      0.523290000000     0.118550000000     0.461010000000     0.401636   
C42      C      0.329540000000     0.865670000000     0.464960000000     0.399706   
C43      C      0.426820000000     0.034560000000     0.550210000000     0.394104   
C44      C      0.425820000000     0.949560000000     0.361600000000     0.401349   
C45      C      0.525980000000     0.924360000000     0.403750000000     0.37182    
C46      C      0.542910000000     0.005790000000     0.603110000000     0.39077    
C47      C      0.441790000000     0.833890000000     0.505440000000     0.40506    
C48      C      0.630580000000     0.088490000000     0.497140000000     0.399424   
C49      C      0.472770000000     0.343890000000     0.010340000000     0.39196    
C50      C      0.359180000000     0.495880000000     0.991580000000     0.401141   
C51      C      0.390580000000     0.355920000000     0.927760000000     0.397067   
C52      C      0.455970000000     0.488710000000     0.099220000000     0.402941   
C53      C      0.576690000000     0.598860000000     0.039890000000     0.387643   
C54      C      0.527040000000     0.474530000000     0.867040000000     0.399775   
C55      C      0.496840000000     0.613200000000     0.952800000000     0.386634   
C56      C      0.609800000000     0.468580000000     0.963390000000     0.383746   
C57      C      0.516240000000     0.366680000000     0.472570000000     0.405779   
C58      C      0.372070000000     0.464160000000     0.551460000000     0.39882    
C59      C      0.377820000000     0.347690000000     0.432320000000     0.398551   
C60      C      0.516050000000     0.472680000000     0.610220000000     0.399764   
C61      C      0.589620000000     0.598230000000     0.537590000000     0.396845   
C62      C      0.451490000000     0.478460000000     0.357180000000     0.402556   
C63      C      0.451030000000     0.582930000000     0.496050000000     0.402198   
C64      C      0.581390000000     0.492840000000     0.403240000000     0.379126   
C65      C      0.544920000000     0.451010000000     0.666350000000     0.0988002  
C66      C      0.511410000000     0.493810000000     0.664820000000     0.0691275  
C67      C      0.550630000000     0.451140000000     0.703600000000    -0.0965382  
C68      C      0.529790000000     0.437970000000     0.782900000000    -0.0846221  
C69      C      0.517170000000     0.494510000000     0.701460000000    -0.0891936  
C70      C      0.542550000000     0.474010000000     0.760370000000     0.031502   
C71      C      0.536930000000     0.473130000000     0.721280000000     0.0395041  
C72      C      0.527730000000     0.438950000000     0.819350000000     0.0672583  
C73      C      0.553980000000     0.510680000000     0.811520000000     0.0672079  
C74      C      0.556910000000     0.510890000000     0.775340000000    -0.085528   
C75      C      0.430700000000     0.510040000000     0.146590000000     0.100832   
C76      C      0.472750000000     0.474370000000     0.158940000000     0.0749464  
C77      C      0.426890000000     0.508810000000     0.183400000000    -0.0964516  
C78      C      0.444570000000     0.517280000000     0.264420000000    -0.0840938  
C79      C      0.469950000000     0.473390000000     0.195070000000    -0.0913145  
C80      C      0.440450000000     0.485060000000     0.246590000000     0.0320528  
C81      C      0.445720000000     0.489450000000     0.207800000000     0.0408791  
C82      C      0.446020000000     0.513900000000     0.301600000000     0.0674273  
C83      C      0.437410000000     0.447040000000     0.303430000000     0.0700022  
C84      C      0.434730000000     0.448990000000     0.266570000000    -0.0852423  
C85      C      0.396360000000     0.762590000000     0.493160000000     0.104118   
C86      C      0.460150000000     0.784190000000     0.534030000000     0.0688924  
C87      C      0.393830000000     0.724280000000     0.493720000000    -0.100143   
C88      C      0.422680000000     0.665470000000     0.475590000000    -0.0862782  
C89      C      0.458370000000     0.746320000000     0.534950000000    -0.0902188  
C90      C      0.428310000000     0.679210000000     0.509350000000     0.0316302  
C91      C      0.426240000000     0.716720000000     0.513320000000     0.0400093  
C92      C      0.429250000000     0.632500000000     0.471620000000     0.0671004  
C93      C      0.445450000000     0.625900000000     0.533770000000     0.0691497  
C94      C      0.438870000000     0.658540000000     0.538700000000    -0.087381   
C95      C      0.530220000000     0.310580000000     0.497510000000     0.0992348  
C96      C      0.534490000000     0.331750000000     0.435470000000     0.0691274  
C97      C      0.540810000000     0.280430000000     0.491700000000    -0.0984613  
C98      C      0.576450000000     0.226670000000     0.475900000000    -0.0882887  
C99      C      0.544520000000     0.301540000000     0.429200000000    -0.0906879  
C100     C      0.551150000000     0.239260000000     0.451460000000     0.0321732  
C101     C      0.547370000000     0.275380000000     0.457430000000     0.0392775  
C102     C      0.568450000000     0.186580000000     0.477420000000     0.0701272  
C103     C      0.516550000000     0.173370000000     0.427420000000     0.0680193  
C104     C      0.522990000000     0.213160000000     0.425610000000    -0.0867315  
C105     C      0.557020000000     0.044660000000     0.655000000000     0.0968435  
C106     C      0.553000000000     0.979150000000     0.661440000000     0.0646061  
C107     C      0.555330000000     0.042990000000     0.692080000000    -0.0958672  
C108     C      0.571030000000     0.996390000000     0.778470000000    -0.0864292  
C109     C      0.552680000000     0.977570000000     0.698350000000    -0.0895689  
C110     C      0.543700000000     0.004390000000     0.752140000000     0.0333925  
C111     C      0.551690000000     0.008760000000     0.713830000000     0.0389324  
C112     C      0.561650000000     0.991370000000     0.814350000000     0.0677913  
C113     C      0.498000000000     0.000470000000     0.798320000000     0.0697845  
C114     C      0.507100000000     0.006690000000     0.762450000000    -0.0862463  
C115     C      0.409840000000     0.973170000000     0.151650000000     0.0980046  
C116     C      0.468110000000     0.955470000000     0.164780000000     0.0676632  
C117     C      0.400380000000     0.965030000000     0.187830000000    -0.0952112  
C118     C      0.418210000000     0.914760000000     0.273720000000    -0.0842744  
C119     C      0.459060000000     0.947140000000     0.200700000000    -0.088378   
C120     C      0.418570000000     0.947650000000     0.251370000000     0.032561   
C121     C      0.425080000000     0.952060000000     0.212670000000     0.0381248  
C122     C      0.417460000000     0.914220000000     0.310650000000     0.0688799  
C123     C      0.416030000000     0.977190000000     0.303500000000     0.0684591  
C124     C      0.415970000000     0.978330000000     0.266680000000    -0.0869009  
C125     C      0.537470000000     0.684710000000     0.927220000000     0.0941743  
C126     C      0.477760000000     0.662380000000     0.965450000000     0.0677491  
C127     C      0.546000000000     0.725660000000     0.927210000000    -0.0953335  
C128     C      0.543660000000     0.808850000000     0.923390000000    -0.0830952  
C129     C      0.485380000000     0.702330000000     0.965500000000    -0.0885079  
C130     C      0.531910000000     0.778100000000     0.951760000000     0.029509   
C131     C      0.520780000000     0.734940000000     0.947390000000     0.036585   
C132     C      0.548130000000     0.847340000000     0.928410000000     0.0612997  
C133     C      0.532520000000     0.826210000000     0.988990000000     0.06802    
C134     C      0.528590000000     0.788230000000     0.985120000000    -0.0850335  
C135     C      0.431660000000     0.272970000000     0.036890000000     0.0968098  
C136     C      0.492890000000     0.294260000000     0.000490000000     0.067411   
C137     C      0.426420000000     0.232880000000     0.041540000000    -0.0952327  
C138     C      0.411760000000     0.145800000000     0.027050000000    -0.0820361  
C139     C      0.488460000000     0.255060000000     0.005010000000    -0.0879163  
C140     C      0.452370000000     0.182420000000     0.031510000000     0.0305035  
C141     C      0.455280000000     0.223780000000     0.025900000000     0.0372877  
C142     C      0.412060000000     0.108260000000     0.027700000000     0.0645931  
C143     C      0.490890000000     0.142250000000     0.039670000000     0.065918   
C144     C      0.491780000000     0.179790000000     0.039210000000    -0.0855527  
C145     C      0.708470000000     0.122080000000     0.482800000000     0.104399   
C146     C      0.676140000000     0.160080000000     0.500100000000     0.0678301  
C147     C      0.743800000000     0.158130000000     0.467870000000    -0.0968801  
C148     C      0.822230000000     0.241670000000     0.445440000000    -0.0830368  
C149     C      0.711390000000     0.196530000000     0.486010000000    -0.0876964  
C150     C      0.777670000000     0.233220000000     0.447570000000     0.0321872  
C151     C      0.744090000000     0.195510000000     0.467480000000     0.0387451  
C152     C      0.853890000000     0.279860000000     0.430290000000     0.0696361  
C153     C      0.797780000000     0.299700000000     0.416630000000     0.0700789  
C154     C      0.765180000000     0.261740000000     0.430600000000    -0.0863679  
C155     C      0.251850000000     0.832460000000     0.480680000000     0.10461    
C156     C      0.278360000000     0.797840000000     0.450280000000     0.0697771  
C157     C      0.215680000000     0.794960000000     0.492400000000    -0.0972211  
C158     C      0.135180000000     0.709040000000     0.506010000000    -0.0839364  
C159     C      0.242490000000     0.760040000000     0.461330000000    -0.0872569  
C160     C      0.179570000000     0.718350000000     0.501970000000     0.0315142  
C161     C      0.212700000000     0.758270000000     0.484890000000     0.0393538  
C162     C      0.103820000000     0.669230000000     0.518270000000     0.0660259  
C163     C      0.160380000000     0.649530000000     0.526170000000     0.0666445  
C164     C      0.192530000000     0.688820000000     0.514400000000    -0.086772   
C165     C      0.833400000000     0.553390000000     0.463220000000     0.0971386  
C166     C      0.789860000000     0.486330000000     0.490970000000     0.0720188  
C167     C      0.793710000000     0.553320000000     0.448570000000    -0.0963735  
C168     C      0.701690000000     0.546680000000     0.425560000000    -0.081859   
C169     C      0.750300000000     0.486000000000     0.477780000000    -0.0896266  
C170     C      0.709910000000     0.513480000000     0.433900000000     0.0332296  
C171     C      0.751870000000     0.518170000000     0.453910000000     0.038827   
C172     C      0.659350000000     0.539740000000     0.411340000000     0.065067   
C173     C      0.634690000000     0.468910000000     0.410120000000     0.0666801  
C174     C      0.676750000000     0.474760000000     0.423700000000    -0.0843336  
C175     C      0.291120000000     0.431420000000     0.553110000000     0.0992712  
C176     C      0.333530000000     0.500400000000     0.529510000000     0.0704798  
C177     C      0.251540000000     0.430190000000     0.536850000000    -0.0980574  
C178     C      0.174820000000     0.422750000000     0.485060000000    -0.0822891  
C179     C      0.295230000000     0.499340000000     0.511770000000    -0.088769   
C180     C      0.212420000000     0.460750000000     0.492680000000     0.0310416  
C181     C      0.253440000000     0.463390000000     0.513930000000     0.0391765  
C182     C      0.136120000000     0.421320000000     0.466930000000     0.0660797  
C183     C      0.172470000000     0.493770000000     0.459590000000     0.0668163  
C184     C      0.210590000000     0.496430000000     0.478920000000    -0.0855245  
C185     C      0.977440000000     0.464960000000     0.783770000000     0.096976   
C186     C      0.942150000000     0.505420000000     0.787530000000     0.0676969  
C187     C      0.969280000000     0.466490000000     0.746880000000    -0.0963125  
C188     C      0.918890000000     0.449880000000     0.676030000000    -0.086304   
C189     C      0.934570000000     0.507930000000     0.750640000000    -0.0891309  
C190     C      0.937900000000     0.487160000000     0.691290000000     0.0313334  
C191     C      0.947180000000     0.487430000000     0.730170000000     0.0389426  
C192     C      0.919200000000     0.449640000000     0.639590000000     0.0665996  
C193     C      0.952010000000     0.522180000000     0.632260000000     0.0667761  
C194     C      0.952560000000     0.523570000000     0.669040000000    -0.0843591  
C195     C      0.011640000000     0.430030000000     0.300200000000     0.0985103  
C196     C      0.051990000000     0.502990000000     0.298340000000     0.0675564  
C197     C      0.018640000000     0.432360000000     0.263950000000    -0.095825   
C198     C      0.047720000000     0.446830000000     0.187410000000    -0.0851129  
C199     C      0.059510000000     0.505820000000     0.262670000000    -0.0885969  
C200     C      0.041190000000     0.473740000000     0.205310000000     0.0319329  
C201     C      0.041120000000     0.470460000000     0.244650000000     0.0384917  
C202     C      0.044060000000     0.449060000000     0.150210000000     0.0661443  
C203     C      0.028440000000     0.504220000000     0.148340000000     0.0687235  
C204     C      0.032010000000     0.502940000000     0.185230000000    -0.085364   
C205     C      0.654160000000     0.160230000000     0.905050000000     0.10289    
C206     C      0.692360000000     0.121240000000     0.911830000000     0.0658052  
C207     C      0.694790000000     0.196360000000     0.899440000000    -0.0971384  
C208     C      0.779270000000     0.272100000000     0.881520000000    -0.083274   
C209     C      0.733330000000     0.157050000000     0.904640000000    -0.0856271  
C210     C      0.779190000000     0.235650000000     0.896200000000     0.0316475  
C211     C      0.735480000000     0.195740000000     0.899540000000     0.0381343  
C212     C      0.816600000000     0.310210000000     0.887090000000     0.0728911  
C213     C      0.858560000000     0.278240000000     0.913770000000     0.0683061  
C214     C      0.820550000000     0.239240000000     0.910980000000    -0.0818783  
C215     C      0.271630000000     0.831750000000     0.046050000000     0.0944846  
C216     C      0.318190000000     0.801340000000     0.063190000000     0.0683879  
C217     C      0.233090000000     0.792600000000     0.049890000000    -0.0930922  
C218     C      0.209210000000     0.691870000000     0.031590000000    -0.0881861  
C219     C      0.280760000000     0.762760000000     0.068010000000    -0.0873513  
C220     C      0.200370000000     0.715720000000     0.051460000000     0.0323374  
C221     C      0.237730000000     0.757460000000     0.058690000000     0.0365119  
C222     C      0.175090000000     0.654020000000     0.022020000000     0.0696188  
C223     C      0.122450000000     0.660810000000     0.052260000000     0.0656384  
C224     C      0.156280000000     0.699870000000     0.061930000000    -0.0839541  
C225     C      0.807010000000     0.435410000000     0.058170000000     0.108694   
C226     C      0.848310000000     0.506930000000     0.042510000000     0.0692526  
C227     C      0.766540000000     0.436260000000     0.049680000000    -0.0969003  
C228     C      0.690570000000     0.434730000000     0.001330000000    -0.0845166  
C229     C      0.808710000000     0.508450000000     0.032380000000    -0.0876685  
C230     C      0.725440000000     0.470940000000     0.014960000000     0.032809   
C231     C      0.767110000000     0.472130000000     0.033240000000     0.039013   
C232     C      0.652450000000     0.434450000000     0.983390000000     0.0674885  
C233     C      0.683610000000     0.505440000000     0.989420000000     0.0733174  
C234     C      0.721170000000     0.506480000000     0.008660000000    -0.0850848  
C235     C      0.146480000000     0.471650000000     0.883190000000     0.100073   
C236     C      0.169580000000     0.539620000000     0.895680000000     0.0665996  
C237     C      0.186920000000     0.475020000000     0.899160000000    -0.0978744  
C238     C      0.245830000000     0.472810000000     0.961730000000    -0.0860907  
C239     C      0.210000000000     0.543800000000     0.912080000000    -0.0846972  
C240     C      0.253710000000     0.509280000000     0.941440000000     0.0342056  
C241     C      0.217080000000     0.509880000000     0.916810000000     0.0392167  
C242     C      0.281010000000     0.470120000000     0.981500000000     0.0726266  
C243     C      0.330690000000     0.540450000000     0.966210000000     0.0689854  
C244     C      0.296160000000     0.544070000000     0.945330000000    -0.0843233  
C245     C      0.764310000000     0.807800000000     0.493420000000     0.104444   
C246     C      0.775970000000     0.829510000000     0.551740000000     0.0675048  
C247     C      0.727220000000     0.770690000000     0.504110000000    -0.098518   
C248     C      0.639670000000     0.705080000000     0.557840000000    -0.084318   
C249     C      0.739150000000     0.792120000000     0.563250000000    -0.0883625  
C250     C      0.684550000000     0.718540000000     0.551230000000     0.031195   
C251     C      0.715880000000     0.761710000000     0.539550000000     0.0382459  
C252     C      0.608120000000     0.663020000000     0.557490000000     0.0654494  
C253     C      0.665490000000     0.648300000000     0.546880000000     0.0697656  
C254     C      0.697690000000     0.689330000000     0.548100000000    -0.0876844  
C255     C      0.358620000000     0.280470000000     0.414150000000     0.0961214  
C256     C      0.302820000000     0.299460000000     0.419690000000     0.0696653  
C257     C      0.324650000000     0.239140000000     0.412080000000    -0.0948172  
C258     C      0.228890000000     0.154100000000     0.401570000000    -0.0842425  
C259     C      0.268960000000     0.259340000000     0.416860000000    -0.089804   
C260     C      0.244930000000     0.185400000000     0.424650000000     0.0311112  
C261     C      0.279760000000     0.228270000000     0.415460000000     0.0379025  
C262     C      0.189710000000     0.116670000000     0.409410000000     0.0649743  
C263     C      0.185150000000     0.140400000000     0.462970000000     0.0695216  
C264     C      0.224020000000     0.177160000000     0.456460000000    -0.085685   
C265     C      0.773210000000     0.964870000000     0.395120000000     0.0957457  
C266     C      0.757310000000     0.940730000000     0.455580000000     0.0653793  
C267     C      0.727500000000     0.953000000000     0.387050000000    -0.0945915  
C268     C      0.612510000000     0.892960000000     0.421470000000    -0.0855762  
C269     C      0.711890000000     0.929080000000     0.448040000000    -0.0871171  
C270     C      0.649210000000     0.927500000000     0.405880000000     0.0284297  
C271     C      0.696400000000     0.935280000000     0.413510000000     0.0362375  
C272     C      0.569640000000     0.889900000000     0.417700000000     0.0621553  
C273     C      0.598220000000     0.952940000000     0.381950000000     0.0667622  
C274     C      0.640980000000     0.956700000000     0.384700000000    -0.0849756  
C275     C      0.189440000000     0.014570000000     0.551030000000     0.0980773  
C276     C      0.199330000000     0.016350000000     0.489730000000     0.0665273  
C277     C      0.235770000000     0.029140000000     0.558370000000    -0.0955196  
C278     C      0.319770000000     0.021890000000     0.569890000000    -0.0871441  
C279     C      0.245430000000     0.030300000000     0.496760000000    -0.086505   
C280     C      0.311280000000     0.044250000000     0.540600000000     0.0295442  
C281     C      0.264130000000     0.036210000000     0.531500000000     0.0367788  
C282     C      0.361230000000     0.023070000000     0.575050000000     0.0678187  
C283     C      0.389070000000     0.071990000000     0.525630000000     0.0664242  
C284     C      0.347180000000     0.070940000000     0.519140000000    -0.0856946  
C285     C      0.982400000000     0.814490000000     0.398180000000     0.0998447  
C286     C      0.054300000000     0.846540000000     0.428580000000     0.0643155  
C287     C      0.985780000000     0.778740000000     0.397220000000    -0.0965044  
C288     C      0.020270000000     0.714030000000     0.391480000000    -0.0825095  
C289     C      0.057770000000     0.810660000000     0.428930000000    -0.0869645  
C290     C      0.021110000000     0.735100000000     0.419810000000     0.0300187  
C291     C      0.022580000000     0.775820000000     0.414100000000     0.0377229  
C292     C      0.014550000000     0.673950000000     0.397840000000     0.0640858  
C293     C      0.008650000000     0.674810000000     0.459190000000     0.0658492  
C294     C      0.015740000000     0.715090000000     0.453940000000    -0.0842082  
C295     C      0.968190000000     0.134870000000     0.544280000000     0.101951   
C296     C      0.897580000000     0.102600000000     0.511990000000     0.0668703  
C297     C      0.965330000000     0.171090000000     0.543050000000    -0.0959283  
C298     C      0.944530000000     0.236040000000     0.482920000000    -0.0848708  
C299     C      0.894620000000     0.138920000000     0.509520000000    -0.0862759  
C300     C      0.932180000000     0.215000000000     0.516340000000     0.0297807  
C301     C      0.929580000000     0.174040000000     0.524100000000     0.0373729  
C302     C      0.953060000000     0.276730000000     0.476680000000     0.0639901  
C303     C      0.935470000000     0.275920000000     0.535440000000     0.0634991  
C304     C      0.927830000000     0.235390000000     0.542860000000    -0.0835754  
C305     C      0.895330000000     0.961680000000     0.793240000000     0.0976157  
C306     C      0.912130000000     0.906770000000     0.803080000000     0.066056   
C307     C      0.894720000000     0.960560000000     0.756260000000    -0.0956814  
C308     C      0.946640000000     0.932970000000     0.692630000000    -0.0856501  
C309     C      0.911460000000     0.905020000000     0.766450000000    -0.0871953  
C310     C      0.910800000000     0.936000000000     0.703730000000     0.0308616  
C311     C      0.904630000000     0.933240000000     0.742520000000     0.0372894  
C312     C      0.954670000000     0.938530000000     0.656590000000     0.0658111  
C313     C      0.891930000000     0.949120000000     0.641480000000     0.0654234  
C314     C      0.883080000000     0.943940000000     0.677560000000    -0.0837163  
C315     C      0.009870000000     0.023650000000     0.289710000000     0.10026    
C316     C      0.053410000000     0.989800000000     0.304940000000     0.0661519  
C317     C      0.017820000000     0.026580000000     0.253670000000    -0.0965537  
C318     C      0.053970000000     0.044160000000     0.180100000000    -0.0835885  
C319     C      0.061720000000     0.992510000000     0.269110000000    -0.0883345  
C320     C      0.047920000000     0.010460000000     0.204190000000     0.0328117  
C321     C      0.043190000000     0.010410000000     0.242870000000     0.0394023  
C322     C      0.052210000000     0.041380000000     0.143410000000     0.0685643  
C323     C      0.040820000000     0.973510000000     0.153830000000     0.0675972  
C324     C      0.042680000000     0.975350000000     0.190560000000    -0.0857108  
C325     C      0.781510000000     0.784400000000     0.952380000000     0.0968044  
C326     C      0.759980000000     0.823590000000     0.982000000000     0.0667028  
C327     C      0.744420000000     0.748170000000     0.965680000000    -0.096293   
C328     C      0.689370000000     0.682890000000     0.024210000000    -0.088956   
C329     C      0.722460000000     0.788340000000     0.994490000000    -0.0879     
C330     C      0.679630000000     0.712360000000     0.005470000000     0.0296749  
C331     C      0.715760000000     0.750080000000     0.988080000000     0.037403   
C332     C      0.654850000000     0.646590000000     0.039180000000     0.0654366  
C333     C      0.601750000000     0.668950000000     0.019260000000     0.0623338  
C334     C      0.635620000000     0.705950000000     0.004420000000    -0.0850107  
C335     C      0.364390000000     0.282090000000     0.937770000000     0.0974965  
C336     C      0.313030000000     0.308040000000     0.926670000000     0.0670035  
C337     C      0.329390000000     0.243880000000     0.950360000000    -0.0952874  
C338     C      0.242280000000     0.161980000000     0.955420000000    -0.0844682  
C339     C      0.277920000000     0.270570000000     0.938770000000    -0.0907968  
C340     C      0.248530000000     0.198840000000     0.965860000000     0.0313511  
C341     C      0.286140000000     0.238510000000     0.952340000000     0.0377874  
C342     C      0.203380000000     0.125540000000     0.963790000000     0.0679832  
C343     C      0.178120000000     0.160310000000     0.995340000000     0.0675315  
C344     C      0.216660000000     0.197600000000     0.987070000000    -0.0843589  
C345     C      0.893920000000     0.067580000000     0.035180000000     0.0874069  
C346     C      0.862330000000     0.003720000000     0.070240000000     0.0674731  
C347     C      0.851680000000     0.066060000000     0.031790000000    -0.0989357  
C348     C      0.752280000000     0.028190000000     0.003380000000    -0.0853356  
C349     C      0.820620000000     0.002170000000     0.067950000000    -0.0849028  
C350     C      0.768240000000     0.026640000000     0.038760000000     0.0322921  
C351     C      0.814330000000     0.032370000000     0.047040000000     0.0350245  
C352     C      0.707500000000     0.018700000000     0.995500000000     0.067626   
C353     C      0.694280000000     0.007850000000     0.056890000000     0.069093   
C354     C      0.738680000000     0.016280000000     0.065670000000    -0.0850988  
C355     C      0.258550000000     0.942730000000     0.965590000000     0.0976014  
C356     C      0.266620000000     0.919820000000     0.912560000000     0.0644001  
C357     C      0.212210000000     0.926470000000     0.956850000000    -0.0954543  
C358     C      0.110060000000     0.872370000000     0.933950000000    -0.0875373  
C359     C      0.220990000000     0.904940000000     0.902860000000    -0.0878691  
C360     C      0.146720000000     0.898530000000     0.913190000000     0.0282067  
C361     C      0.193230000000     0.907800000000     0.925240000000     0.0367201  
C362     C      0.069250000000     0.873060000000     0.926890000000     0.0627812  
C363     C      0.099950000000     0.922850000000     0.878390000000     0.0660317  
C364     C      0.140250000000     0.921680000000     0.883680000000    -0.0864469  
C365     C      0.968490000000     0.780870000000     0.020400000000     0.0994699  
C366     C      0.908760000000     0.765640000000     0.976050000000     0.0699476  
C367     C      0.962340000000     0.741200000000     0.019970000000    -0.0983787  
C368     C      0.923740000000     0.661970000000     0.958270000000    -0.0853676  
C369     C      0.901950000000     0.726150000000     0.975490000000    -0.0903154  
C370     C      0.928270000000     0.674870000000     0.992270000000     0.0316023  
C371     C      0.929840000000     0.714040000000     0.996680000000     0.039508   
C372     C      0.929910000000     0.628740000000     0.954140000000     0.0669819  
C373     C      0.942830000000     0.619940000000     0.016530000000     0.0680161  
C374     C      0.936010000000     0.652360000000     0.021640000000    -0.0878905  
C375     C      0.014650000000     0.172410000000     0.916520000000     0.103379   
C376     C      0.069440000000     0.182850000000     0.964400000000     0.0725073  
C377     C      0.025260000000     0.213550000000     0.915760000000    -0.0986989  
C378     C      0.055690000000     0.303020000000     0.915480000000    -0.0861251  
C379     C      0.080720000000     0.223790000000     0.963760000000    -0.0909464  
C380     C      0.060510000000     0.278940000000     0.944970000000     0.0317074  
C381     C      0.057020000000     0.238980000000     0.940490000000     0.0407835  
C382     C      0.048070000000     0.335060000000     0.920430000000     0.0700739  
C383     C      0.055390000000     0.323240000000     0.983070000000     0.0686032  
C384     C      0.062150000000     0.290340000000     0.979090000000    -0.0850333  
H1       H      0.000200000000     0.976440000000     0.887240000000     0.205655   
H2       H      0.939040000000     0.038030000000     0.974700000000     0.192814   
H3       H      0.907720000000     0.880420000000     0.006430000000     0.195408   
H4       H      0.079700000000     0.004150000000     0.022260000000     0.194278   
H5       H      0.903910000000     0.050910000000     0.915640000000     0.135127   
H6       H      0.823050000000     0.965520000000     0.961390000000     0.20577    
H7       H      0.850990000000     0.902200000000     0.057710000000     0.132594   
H8       H      0.928220000000     0.874620000000     0.083420000000     0.187301   
H9       H      0.069390000000     0.910370000000     0.029150000000     0.145126   
H10      H      0.131300000000     0.979850000000     0.994820000000     0.19424    
H11      H      0.100620000000     0.048140000000     0.885050000000     0.131302   
H12      H      0.025990000000     0.065740000000     0.855320000000     0.190596   
H13      H      0.973530000000     0.869140000000     0.096220000000     0.203835   
H14      H      0.124560000000     0.957480000000     0.957570000000     0.203933   
H15      H      0.980250000000     0.071220000000     0.845180000000     0.206612   
H16      H      0.857350000000     0.008390000000     0.981260000000     0.194651   
H17      H      0.869260000000     0.917260000000     0.448780000000     0.200346   
H18      H      0.027740000000     0.045100000000     0.406400000000     0.191458   
H19      H      0.991380000000     0.023760000000     0.546200000000     0.193543   
H20      H      0.022820000000     0.911460000000     0.493490000000     0.198405   
H21      H      0.968890000000     0.065480000000     0.374900000000     0.1343     
H22      H      0.000820000000     0.118240000000     0.429930000000     0.204744   
H23      H      0.078800000000     0.096030000000     0.536870000000     0.127735   
H24      H      0.078550000000     0.032880000000     0.584980000000     0.18963    
H25      H      0.990600000000     0.886360000000     0.576520000000     0.14086    
H26      H      0.956420000000     0.829240000000     0.511610000000     0.19884    
H27      H      0.873480000000     0.852880000000     0.410960000000     0.128645   
H28      H      0.868890000000     0.911670000000     0.368570000000     0.188645   
H29      H      0.066000000000     0.989090000000     0.610170000000     0.202308   
H30      H      0.916680000000     0.828890000000     0.533940000000     0.200859   
H31      H      0.881000000000     0.953250000000     0.340270000000     0.206811   
H32      H      0.048500000000     0.123950000000     0.416040000000     0.194323   
H33      H      0.951690000000     0.433280000000     0.048370000000     0.191834   
H34      H      0.907330000000     0.435350000000     0.905520000000     0.195354   
H35      H      0.033680000000     0.578600000000     0.959720000000     0.196281   
H36      H      0.076810000000     0.457500000000     0.957460000000     0.203775   
H37      H      0.829670000000     0.423360000000     0.948320000000     0.131917   
H38      H      0.864320000000     0.500870000000     0.912420000000     0.197244   
H39      H      0.026350000000     0.594050000000     0.884270000000     0.130593   
H40      H      0.121860000000     0.613710000000     0.907520000000     0.192337   
H41      H      0.169710000000     0.555210000000     0.982360000000     0.140776   
H42      H      0.122270000000     0.456160000000     0.023720000000     0.201854   
H43      H      0.962680000000     0.368600000000     0.064950000000     0.133108   
H44      H      0.880240000000     0.331680000000     0.016070000000     0.204119   
H45      H      0.163730000000     0.614740000000     0.935470000000     0.194826   
H46      H      0.103120000000     0.435980000000     0.064150000000     0.205498   
H47      H      0.869760000000     0.355600000000     0.045100000000     0.197361   
H48      H      0.876610000000     0.497790000000     0.871820000000     0.198486   
H49      H      0.896180000000     0.453160000000     0.517920000000     0.193281   
H50      H      0.935860000000     0.449670000000     0.383520000000     0.199485   
H51      H      0.054940000000     0.575860000000     0.459650000000     0.199437   
H52      H      0.033230000000     0.422370000000     0.503090000000     0.204163   
H53      H      0.859490000000     0.484270000000     0.389380000000     0.143006   
H54      H      0.938920000000     0.551650000000     0.356690000000     0.202466   
H55      H      0.094580000000     0.583040000000     0.394510000000     0.131327   
H56      H      0.162360000000     0.577640000000     0.471600000000     0.19235    
H57      H      0.097960000000     0.490140000000     0.559330000000     0.138303   
H58      H      0.015330000000     0.393920000000     0.576850000000     0.200456   
H59      H      0.865430000000     0.363980000000     0.535530000000     0.129661   
H60      H      0.805190000000     0.381620000000     0.479010000000     0.189792   
H61      H      0.169550000000     0.552730000000     0.509320000000     0.20047    
H62      H      0.013830000000     0.430190000000     0.597250000000     0.202051   
H63      H      0.789250000000     0.396010000000     0.438960000000     0.201405   
H64      H      0.950010000000     0.522560000000     0.333920000000     0.201487   
H65      H      0.471040000000     0.918450000000     0.917590000000     0.196856   
H66      H      0.446870000000     0.918910000000     0.057690000000     0.19516    
H67      H      0.591950000000     0.048510000000     0.997180000000     0.194589   
H68      H      0.424400000000     0.028940000000     0.954700000000     0.202549   
H69      H      0.451090000000     0.836630000000     0.045860000000     0.131073   
H70      H      0.530730000000     0.908610000000     0.084250000000     0.189281   
H71      H      0.585050000000     0.068440000000     0.065280000000     0.131881   
H72      H      0.593420000000     0.139330000000     0.003640000000     0.193762   
H73      H      0.499030000000     0.098370000000     0.907870000000     0.141006   
H74      H      0.394990000000     0.024860000000     0.881290000000     0.200122   
H75      H      0.366980000000     0.893160000000     0.896140000000     0.136468   
H76      H      0.378800000000     0.838560000000     0.939010000000     0.194131   
H77      H      0.561690000000     0.154370000000     0.976010000000     0.203112   
H78      H      0.440740000000     0.037260000000     0.859860000000     0.201299   
H79      H      0.426380000000     0.838340000000     0.932820000000     0.193459   
H80      H      0.562550000000     0.945980000000     0.111060000000     0.201837   
H81      H      0.383240000000     0.946920000000     0.434180000000     0.197743   
H82      H      0.463560000000     0.971840000000     0.568460000000     0.20865    
H83      H      0.522870000000     0.910940000000     0.479170000000     0.196313   
H84      H      0.555930000000     0.068530000000     0.449010000000     0.197197   
H85      H      0.365980000000     0.892140000000     0.566880000000     0.132006   
H86      H      0.436620000000     0.884150000000     0.599210000000     0.188584   
H87      H      0.590830000000     0.949170000000     0.556170000000     0.14327    
H88      H      0.602900000000     0.941890000000     0.486590000000     0.194439   
H89      H      0.606530000000     0.050200000000     0.396230000000     0.131938   
H90      H      0.529370000000     0.073360000000     0.368930000000     0.189089   
H91      H      0.402530000000     0.052010000000     0.425280000000     0.140989   
H92      H      0.347620000000     0.993880000000     0.470510000000     0.198616   
H93      H      0.642240000000     0.980920000000     0.462550000000     0.208642   
H94      H      0.483170000000     0.077930000000     0.358080000000     0.201872   
H95      H      0.320650000000     0.968940000000     0.507400000000     0.207697   
H96      H      0.480260000000     0.875340000000     0.608370000000     0.202998   
H97      H      0.401050000000     0.448270000000     0.035020000000     0.199581   
H98      H      0.444450000000     0.450570000000     0.899820000000     0.192878   
H99      H      0.553630000000     0.580650000000     0.974860000000     0.19509    
H100     H      0.549180000000     0.435000000000     0.019190000000     0.19776    
H101     H      0.367830000000     0.454200000000     0.889820000000     0.135165   
H102     H      0.431090000000     0.543970000000     0.875670000000     0.204664   
H103     H      0.591420000000     0.595700000000     0.906030000000     0.129741   
H104     H      0.647440000000     0.601220000000     0.970940000000     0.188175   
H105     H      0.607620000000     0.496880000000     0.071220000000     0.137497   
H106     H      0.526910000000     0.395900000000     0.090030000000     0.199135   
H107     H      0.379940000000     0.364100000000     0.057080000000     0.130243   
H108     H      0.332290000000     0.355160000000     0.996200000000     0.192084   
H109     H      0.673800000000     0.588110000000     0.005610000000     0.197503   
H110     H      0.533800000000     0.437090000000     0.108260000000     0.197809   
H111     H      0.299830000000     0.373070000000     0.973590000000     0.201984   
H112     H      0.447560000000     0.520560000000     0.850700000000     0.195843   
H113     H      0.440570000000     0.429860000000     0.563090000000     0.205306   
H114     H      0.398790000000     0.437530000000     0.419910000000     0.200146   
H115     H      0.527850000000     0.577360000000     0.477850000000     0.196749   
H116     H      0.565570000000     0.453330000000     0.473180000000     0.206573   
H117     H      0.301540000000     0.398180000000     0.485220000000     0.142069   
H118     H      0.358760000000     0.503140000000     0.429730000000     0.208102   
H119     H      0.525070000000     0.593940000000     0.401830000000     0.129993   
H120     H      0.618480000000     0.612750000000     0.428250000000     0.191555   
H121     H      0.660280000000     0.547780000000     0.500860000000     0.139057   
H122     H      0.609580000000     0.462210000000     0.554100000000     0.202275   
H123     H      0.445610000000     0.346470000000     0.553160000000     0.136329   
H124     H      0.362050000000     0.338840000000     0.543230000000     0.193295   
H125     H      0.658810000000     0.610390000000     0.456050000000     0.196116   
H126     H      0.585510000000     0.411520000000     0.564780000000     0.207423   
H127     H      0.315410000000     0.339250000000     0.525060000000     0.198315   
H128     H      0.375040000000     0.514040000000     0.387950000000     0.204254   
H129     H      0.515380000000     0.410160000000     0.835770000000     0.0256304  
H130     H      0.495170000000     0.510740000000     0.651370000000     0.0270072  
H131     H      0.568580000000     0.539640000000     0.758920000000     0.0520592  
H132     H      0.505350000000     0.511380000000     0.714280000000     0.0520851  
H133     H      0.518870000000     0.408880000000     0.772240000000     0.0515142  
H134     H      0.566670000000     0.434920000000     0.718920000000     0.0562863  
H135     H      0.563950000000     0.539870000000     0.821670000000     0.0309078  
H136     H      0.450920000000     0.540040000000     0.314560000000     0.0268173  
H137     H      0.492220000000     0.461320000000     0.150970000000     0.0188197  
H138     H      0.429610000000     0.422660000000     0.253830000000     0.0522086  
H139     H      0.486840000000     0.459790000000     0.213010000000     0.0531199  
H140     H      0.448840000000     0.545620000000     0.249950000000     0.0512063  
H141     H      0.407990000000     0.521510000000     0.193010000000     0.0559562  
H142     H      0.434170000000     0.418890000000     0.317700000000     0.0272389  
H143     H      0.425530000000     0.623340000000     0.444960000000     0.0266249  
H144     H      0.487490000000     0.807060000000     0.549570000000     0.0233349  
H145     H      0.442670000000     0.667860000000     0.565290000000     0.050446   
H146     H      0.483820000000     0.741350000000     0.550850000000     0.0510465  
H147     H      0.414900000000     0.681020000000     0.452140000000     0.0515828  
H148     H      0.366930000000     0.700360000000     0.478710000000     0.0547615  
H149     H      0.454210000000     0.611110000000     0.557300000000     0.0289387  
H150     H      0.586680000000     0.177170000000     0.498200000000     0.0253443  
H151     H      0.533110000000     0.351510000000     0.412480000000     0.0287562  
H152     H      0.503080000000     0.222030000000     0.406100000000     0.0505004  
H153     H      0.549400000000     0.298360000000     0.402290000000     0.0510694  
H154     H      0.599660000000     0.246640000000     0.495540000000     0.0496923  
H155     H      0.541350000000     0.259100000000     0.513670000000     0.0577357  
H156     H      0.492290000000     0.153040000000     0.408420000000     0.0201987  
H157     H      0.583740000000     0.985400000000     0.833930000000     0.0266899  
H158     H      0.551770000000     0.952990000000     0.651050000000     0.0238365  
H159     H      0.484970000000     0.012450000000     0.742760000000     0.0521956  
H160     H      0.550730000000     0.950870000000     0.714500000000     0.0512278  
H161     H      0.599610000000     0.994300000000     0.771400000000     0.051782   
H162     H      0.556520000000     0.068220000000     0.704230000000     0.0569473  
H163     H      0.469030000000     0.002330000000     0.804860000000     0.0231984  
H164     H      0.418810000000     0.889010000000     0.327090000000     0.0280828  
H165     H      0.494750000000     0.950690000000     0.157250000000     0.0216109  
H166     H      0.416200000000     0.004320000000     0.250450000000     0.0523874  
H167     H      0.479540000000     0.937900000000     0.219180000000     0.0514996  
H168     H      0.419570000000     0.890120000000     0.262800000000     0.0511     
H169     H      0.374250000000     0.969540000000     0.196940000000     0.0559924  
H170     H      0.415480000000     0.002470000000     0.314040000000     0.0247587  
H171     H      0.554880000000     0.869620000000     0.905590000000     0.0231446  
H172     H      0.450060000000     0.638700000000     0.980500000000     0.0274938  
H173     H      0.521670000000     0.766370000000     0.008240000000     0.0511159  
H174     H      0.463740000000     0.707630000000     0.980410000000     0.0518772  
H175     H      0.547210000000     0.802620000000     0.897190000000     0.0493752  
H176     H      0.573650000000     0.750560000000     0.912960000000     0.0551434  
H177     H      0.528080000000     0.831670000000     0.015280000000     0.0243887  
H178     H      0.380490000000     0.080930000000     0.022350000000     0.0263107  
H179     H      0.519830000000     0.317180000000     0.984350000000     0.0267063  
H180     H      0.523700000000     0.206990000000     0.043920000000     0.0492971  
H181     H      0.511180000000     0.249300000000     0.991950000000     0.0512263  
H182     H      0.380380000000     0.146430000000     0.021300000000     0.0500262  
H183     H      0.400060000000     0.208740000000     0.057450000000     0.0559916  
H184     H      0.522810000000     0.142480000000     0.044890000000     0.0237023  
H185     H      0.888470000000     0.286390000000     0.431250000000     0.0297962  
H186     H      0.649800000000     0.162160000000     0.511630000000     0.0256681  
H187     H      0.730680000000     0.255620000000     0.429480000000     0.049317   
H188     H      0.711820000000     0.225180000000     0.488350000000     0.0497991  
H189     H      0.833450000000     0.220250000000     0.457320000000     0.0516427  
H190     H      0.770140000000     0.156740000000     0.455620000000     0.0562292  
H191     H      0.787160000000     0.321990000000     0.406000000000     0.0216147  
H192     H      0.069180000000     0.662300000000     0.518630000000     0.0276101  
H193     H      0.301760000000     0.797790000000     0.433300000000     0.0280638  
H194     H      0.227070000000     0.695500000000     0.513670000000     0.0504418  
H195     H      0.239290000000     0.732240000000     0.452690000000     0.0510051  
H196     H      0.123980000000     0.731380000000     0.497690000000     0.0500235  
H197     H      0.190820000000     0.794370000000     0.508270000000     0.0564838  
H198     H      0.171420000000     0.626870000000     0.533520000000     0.0212862  
H199     H      0.653600000000     0.565860000000     0.406250000000     0.0159017  
H200     H      0.787260000000     0.459030000000     0.506620000000     0.0142363  
H201     H      0.682490000000     0.448590000000     0.427490000000     0.049141   
H202     H      0.718630000000     0.459350000000     0.484600000000     0.0511895  
H203     H      0.726610000000     0.577400000000     0.431840000000     0.0457371  
H204     H      0.795680000000     0.579310000000     0.431180000000     0.0540163  
H205     H      0.609100000000     0.437950000000     0.404890000000     0.0245928  
H206     H      0.107140000000     0.391470000000     0.463190000000     0.0255973  
H207     H      0.364920000000     0.528470000000     0.525160000000     0.0300167  
H208     H      0.237670000000     0.526820000000     0.483460000000     0.045972   
H209     H      0.299810000000     0.526400000000     0.494990000000     0.049643   
H210     H      0.174630000000     0.394020000000     0.493210000000     0.0487862  
H211     H      0.219470000000     0.403180000000     0.541980000000     0.0542371  
H212     H      0.173490000000     0.522330000000     0.448890000000     0.0186443  
H213     H      0.905670000000     0.419950000000     0.629160000000     0.0275851  
H214     H      0.930150000000     0.520690000000     0.802330000000     0.0226931  
H215     H      0.967080000000     0.552980000000     0.680110000000     0.0515725  
H216     H      0.917770000000     0.524800000000     0.738350000000     0.0517323  
H217     H      0.906000000000     0.421050000000     0.692420000000     0.0522108  
H218     H      0.981040000000     0.452070000000     0.730760000000     0.0564015  
H219     H      0.966100000000     0.551020000000     0.615870000000     0.02681    
H220     H      0.048760000000     0.427340000000     0.137360000000     0.0226707  
H221     H      0.066550000000     0.531750000000     0.310590000000     0.0293067  
H222     H      0.026040000000     0.523980000000     0.197920000000     0.0511855  
H223     H      0.078500000000     0.535900000000     0.248950000000     0.0524043  
H224     H      0.055290000000     0.424040000000     0.201990000000     0.0506335  
H225     H      0.004280000000     0.404580000000     0.250200000000     0.0561017  
H226     H      0.020590000000     0.527070000000     0.134180000000     0.0276343  
H227     H      0.813890000000     0.337630000000     0.878430000000     0.0152233  
H228     H      0.693070000000     0.092520000000     0.917610000000     0.0252964  
H229     H      0.823180000000     0.212610000000     0.922500000000     0.0490527  
H230     H      0.763180000000     0.154180000000     0.904010000000     0.0498002  
H231     H      0.750060000000     0.271890000000     0.867250000000     0.0500716  
H232     H      0.694140000000     0.225110000000     0.895620000000     0.0560917  
H233     H      0.889040000000     0.280120000000     0.927380000000     0.0208488  
H234     H      0.184500000000     0.637400000000     0.006420000000     0.0152682  
H235     H      0.350880000000     0.803120000000     0.068750000000     0.023776   
H236     H      0.148020000000     0.717440000000     0.077290000000     0.0504993  
H237     H      0.285820000000     0.736550000000     0.076320000000     0.0519208  
H238     H      0.242430000000     0.702910000000     0.022360000000     0.050514   
H239     H      0.199760000000     0.789100000000     0.043320000000     0.0549847  
H240     H      0.088660000000     0.649550000000     0.060350000000     0.0257497  
H241     H      0.625940000000     0.405690000000     0.974090000000     0.0249374  
H242     H      0.879610000000     0.535020000000     0.037970000000     0.0281263  
H243     H      0.746260000000     0.535240000000     0.018710000000     0.0487123  
H244     H      0.811730000000     0.537520000000     0.021030000000     0.0505841  
H245     H      0.692530000000     0.406620000000     0.003990000000     0.0513734  
H246     H      0.734850000000     0.408620000000     0.054450000000     0.0564913  
H247     H      0.682380000000     0.533910000000     0.985150000000     0.0152143  
H248     H      0.274000000000     0.440560000000     0.995140000000     0.0196843  
H249     H      0.164240000000     0.565830000000     0.894630000000     0.0154647  
H250     H      0.303520000000     0.573220000000     0.930830000000     0.0488449  
H251     H      0.233490000000     0.572280000000     0.923500000000     0.0467945  
H252     H      0.212920000000     0.445810000000     0.961420000000     0.050753   
H253     H      0.194310000000     0.450040000000     0.898920000000     0.0573197  
H254     H      0.363950000000     0.567080000000     0.966540000000     0.0260535  
H255     H      0.573030000000     0.653730000000     0.559890000000     0.0253502  
H256     H      0.795300000000     0.851480000000     0.571260000000     0.0239777  
H257     H      0.732220000000     0.698660000000     0.543390000000     0.0521752  
H258     H      0.730870000000     0.786100000000     0.590850000000     0.0522591  
H259     H      0.628450000000     0.727010000000     0.560330000000     0.0506888  
H260     H      0.708020000000     0.747830000000     0.485190000000     0.0575996  
H261     H      0.676750000000     0.627020000000     0.541900000000     0.0159947  
H262     H      0.176290000000     0.093790000000     0.390230000000     0.0246935  
H263     H      0.292640000000     0.322050000000     0.422820000000     0.0192758  
H264     H      0.236340000000     0.200100000000     0.475520000000     0.0527146  
H265     H      0.234400000000     0.252130000000     0.418650000000     0.0523958  
H266     H      0.244770000000     0.159340000000     0.376890000000     0.0506719  
H267     H      0.333240000000     0.215150000000     0.410590000000     0.055465   
H268     H      0.169250000000     0.136260000000     0.487480000000     0.0293208  
H269     H      0.542640000000     0.864030000000     0.431710000000     0.0206903  
H270     H      0.766790000000     0.934620000000     0.482940000000     0.0300522  
H271     H      0.667980000000     0.983810000000     0.371980000000     0.0531502  
H272     H      0.689240000000     0.916240000000     0.469550000000     0.0491685  
H273     H      0.617180000000     0.869200000000     0.437480000000     0.0494004  
H274     H      0.716090000000     0.958310000000     0.360060000000     0.0550011  
H275     H      0.593830000000     0.977170000000     0.366420000000     0.0236847  
H276     H      0.365190000000     0.002970000000     0.596620000000     0.0244202  
H277     H      0.187220000000     0.012170000000     0.462150000000     0.0306615  
H278     H      0.342360000000     0.089430000000     0.496600000000     0.0494998  
H279     H      0.265940000000     0.034880000000     0.475080000000     0.0495627  
H280     H      0.293470000000     0.000940000000     0.587370000000     0.0517142  
H281     H      0.249900000000     0.034150000000     0.585500000000     0.0553542  
H282     H      0.414960000000     0.090470000000     0.507020000000     0.0239891  
H283     H      0.014170000000     0.658810000000     0.375210000000     0.0259831  
H284     H      0.081170000000     0.871930000000     0.442150000000     0.0216929  
H285     H      0.015390000000     0.730000000000     0.476460000000     0.0508589  
H286     H      0.086980000000     0.809600000000     0.442060000000     0.0513782  
H287     H      0.023710000000     0.728330000000     0.364550000000     0.0512218  
H288     H      0.958820000000     0.752390000000     0.384740000000     0.0574713  
H289     H      0.003470000000     0.660590000000     0.486150000000     0.0291028  
H290     H      0.963450000000     0.291780000000     0.450470000000     0.0286226  
H291     H      0.871240000000     0.076910000000     0.498410000000     0.0263465  
H292     H      0.919060000000     0.220260000000     0.569260000000     0.0519154  
H293     H      0.866200000000     0.140100000000     0.494880000000     0.0520463  
H294     H      0.949100000000     0.221550000000     0.461950000000     0.0518763  
H295     H      0.991950000000     0.197730000000     0.555440000000     0.057665   
H296     H      0.931610000000     0.290470000000     0.556730000000     0.026854   
H297     H      0.983280000000     0.936300000000     0.649740000000     0.019695   
H298     H      0.919950000000     0.885440000000     0.820200000000     0.0259323  
H299     H      0.854710000000     0.946210000000     0.684850000000     0.0505303  
H300     H      0.917750000000     0.882360000000     0.756980000000     0.0511195  
H301     H      0.969430000000     0.927520000000     0.711790000000     0.049163   
H302     H      0.887770000000     0.981800000000     0.738160000000     0.055251   
H303     H      0.869820000000     0.955440000000     0.622210000000     0.027029   
H304     H      0.055670000000     0.067740000000     0.125820000000     0.0280436  
H305     H      0.067560000000     0.974530000000     0.323950000000     0.0273526  
H306     H      0.037810000000     0.948530000000     0.208030000000     0.0507414  
H307     H      0.082190000000     0.980120000000     0.262010000000     0.0516711  
H308     H      0.059050000000     0.072300000000     0.189460000000     0.0512749  
H309     H      0.003590000000     0.041070000000     0.233780000000     0.0572772  
H310     H      0.035270000000     0.945060000000     0.144740000000     0.0252017  
H311     H      0.663650000000     0.624080000000     0.052700000000     0.0188279  
H312     H      0.764040000000     0.852350000000     0.989130000000     0.0297975  
H313     H      0.627020000000     0.728560000000     0.990850000000     0.052455   
H314     H      0.700110000000     0.791100000000     0.010760000000     0.0529357  
H315     H      0.723400000000     0.687600000000     0.026830000000     0.048629   
H316     H      0.737730000000     0.718400000000     0.958750000000     0.0527419  
H317     H      0.567690000000     0.664220000000     0.016040000000     0.0317098  
H318     H      0.199480000000     0.098000000000     0.953990000000     0.0291445  
H319     H      0.304350000000     0.331950000000     0.917500000000     0.0242648  
H320     H      0.220820000000     0.225460000000     0.996340000000     0.0482565  
H321     H      0.244380000000     0.266920000000     0.937730000000     0.0506546  
H322     H      0.266050000000     0.161420000000     0.939180000000     0.0514943  
H323     H      0.335810000000     0.218430000000     0.958830000000     0.0556591  
H324     H      0.153440000000     0.160820000000     0.010570000000     0.024957   
H325     H      0.696700000000     0.020010000000     0.967660000000     0.0271239  
H326     H      0.864820000000     0.978460000000     0.085640000000     0.0256078  
H327     H      0.749780000000     0.014570000000     0.093370000000     0.0516342  
H328     H      0.792710000000     0.975960000000     0.080750000000     0.0535344  
H329     H      0.773960000000     0.035490000000     0.981800000000     0.0486596  
H330     H      0.847360000000     0.090450000000     0.016460000000     0.0544669  
H331     H      0.672590000000     0.999960000000     0.078600000000     0.0240448  
H332     H      0.042820000000     0.855150000000     0.945220000000     0.0278859  
H333     H      0.286100000000     0.915750000000     0.894320000000     0.0254484  
H334     H      0.167680000000     0.941990000000     0.866900000000     0.0522002  
H335     H      0.207560000000     0.891590000000     0.877680000000     0.0516899  
H336     H      0.113900000000     0.853770000000     0.956860000000     0.0514359  
H337     H      0.191160000000     0.930680000000     0.973510000000     0.0518668  
H338     H      0.097590000000     0.944200000000     0.857300000000     0.0236652  
H339     H      0.927740000000     0.620560000000     0.927340000000     0.0273877  
H340     H      0.886500000000     0.773510000000     0.958510000000     0.0287885  
H341     H      0.938420000000     0.660610000000     0.048440000000     0.0499119  
H342     H      0.875620000000     0.705570000000     0.957780000000     0.0510997  
H343     H      0.917900000000     0.678690000000     0.934770000000     0.0516788  
H344     H      0.984650000000     0.732220000000     0.036350000000     0.0555472  
H345     H      0.950310000000     0.604300000000     0.040100000000     0.0274856  
H346     H      0.042480000000     0.351730000000     0.896750000000     0.0313438  
H347     H      0.088230000000     0.172410000000     0.983730000000     0.0272785  
H348     H      0.065650000000     0.272450000000     0.002690000000     0.0516101  
H349     H      0.106620000000     0.242960000000     0.982520000000     0.0503044  
H350     H      0.055590000000     0.295960000000     0.888660000000     0.0515269  
H351     H      0.006440000000     0.224990000000     0.897500000000     0.0574722  
H352     H      0.054990000000     0.330020000000     0.009910000000     0.0275207  
N1       N      0.524550000000     0.472180000000     0.646760000000    -0.193594   
N2       N      0.537190000000     0.474670000000     0.833070000000    -0.192893   
N3       N      0.452810000000     0.491650000000     0.134480000000    -0.195938   
N4       N      0.444520000000     0.479740000000     0.320900000000    -0.19313    
N5       N      0.431640000000     0.793500000000     0.511350000000    -0.197262   
N6       N      0.441680000000     0.613530000000     0.500390000000    -0.194183   
N7       N      0.526880000000     0.336420000000     0.469090000000    -0.196318   
N8       N      0.536600000000     0.159450000000     0.454810000000    -0.194902   
N9       N      0.552280000000     0.011000000000     0.639270000000    -0.191156   
N10      N      0.525090000000     0.992980000000     0.824240000000    -0.191248   
N11      N      0.443770000000     0.967980000000     0.139970000000    -0.192278   
N12      N      0.418490000000     0.946220000000     0.325500000000    -0.190884   
N13      N      0.503960000000     0.653110000000     0.947450000000    -0.191328   
N14      N      0.540230000000     0.855010000000     0.960600000000    -0.191441   
N15      N      0.465500000000     0.303940000000     0.016480000000    -0.191228   
N16      N      0.451750000000     0.106940000000     0.032360000000    -0.189729   
N17      N      0.672290000000     0.122850000000     0.495350000000    -0.195721   
N18      N      0.842370000000     0.309880000000     0.419350000000    -0.192392   
N19      N      0.286310000000     0.833120000000     0.463820000000    -0.195219   
N20      N      0.115710000000     0.638900000000     0.524960000000    -0.192652   
N21      N      0.830860000000     0.518130000000     0.481570000000    -0.198044   
N22      N      0.625120000000     0.500640000000     0.406760000000    -0.197708   
N23      N      0.332450000000     0.465680000000     0.547040000000    -0.19768    
N24      N      0.134470000000     0.456730000000     0.455660000000    -0.194881   
N25      N      0.962130000000     0.483190000000     0.804460000000    -0.194348   
N26      N      0.938120000000     0.485610000000     0.618090000000    -0.192857   
N27      N      0.026650000000     0.465820000000     0.317010000000    -0.193986   
N28      N      0.033550000000     0.477020000000     0.130820000000    -0.192961   
N29      N      0.653460000000     0.122920000000     0.914130000000    -0.193641   
N30      N      0.855280000000     0.313080000000     0.903940000000    -0.192425   
N31      N      0.314270000000     0.835290000000     0.049740000000    -0.191562   
N32      N      0.131700000000     0.638560000000     0.031630000000    -0.19179    
N33      N      0.847410000000     0.469930000000     0.050510000000    -0.197261   
N34      N      0.648790000000     0.469500000000     0.977870000000    -0.195955   
N35      N      0.135610000000     0.502040000000     0.886250000000    -0.199464   
N36      N      0.323710000000     0.502890000000     0.981750000000    -0.193471   
N37      N      0.790450000000     0.835800000000     0.518010000000    -0.195549   
N38      N      0.620710000000     0.635700000000     0.549070000000    -0.192747   
N39      N      0.347400000000     0.309870000000     0.420670000000    -0.194238   
N40      N      0.166570000000     0.111300000000     0.438740000000    -0.191401   
N41      N      0.788310000000     0.958240000000     0.429670000000    -0.190401   
N42      N      0.563520000000     0.921150000000     0.400000000000    -0.196829   
N43      N      0.170630000000     0.007730000000     0.516310000000    -0.189255   
N44      N      0.394490000000     0.045710000000     0.551730000000    -0.193679   
N45      N      0.015620000000     0.847460000000     0.415770000000    -0.192473   
N46      N      0.008060000000     0.654110000000     0.431460000000    -0.186657   
N47      N      0.935570000000     0.101600000000     0.526750000000    -0.193506   
N48      N      0.948500000000     0.296760000000     0.502640000000    -0.187714   
N49      N      0.907270000000     0.936570000000     0.816730000000    -0.192207   
N50      N      0.927900000000     0.947000000000     0.631030000000    -0.190855   
N51      N      0.026240000000     0.003590000000     0.315400000000    -0.191853   
N52      N      0.043960000000     0.005720000000     0.130240000000    -0.189303   
N53      N      0.791650000000     0.822040000000     0.963510000000    -0.192954   
N54      N      0.610920000000     0.638450000000     0.034540000000    -0.194658   
N55      N      0.356840000000     0.315360000000     0.929050000000    -0.194424   
N56      N      0.170460000000     0.124900000000     0.982150000000    -0.191452   
N57      N      0.898080000000     0.034430000000     0.052140000000    -0.199687   
N58      N      0.678530000000     0.008530000000     0.022010000000    -0.189487   
N59      N      0.285880000000     0.938390000000     0.943730000000    -0.191864   
N60      N      0.066170000000     0.901090000000     0.901450000000    -0.194996   
N61      N      0.942520000000     0.793630000000     0.997200000000    -0.195815   
N62      N      0.941350000000     0.609070000000     0.982950000000    -0.194061   
N63      N      0.035230000000     0.156510000000     0.942440000000    -0.196867   
N64      N      0.046070000000     0.344010000000     0.953970000000    -0.193047   
O1       O      0.121680000000     0.061750000000     0.964250000000    -0.380759   
O2       O      0.099510000000     0.087780000000     0.003840000000    -0.367726   
O3       O      0.930470000000     0.978270000000     0.862590000000    -0.369489   
O4       O      0.921080000000     0.913780000000     0.873660000000    -0.376234   
O5       O      0.000140000000     0.091100000000     0.924280000000    -0.3769     
O6       O      0.031690000000     0.102990000000     0.980170000000    -0.370005   
O7       O      0.051240000000     0.953380000000     0.899420000000    -0.387084   
O8       O      0.998470000000     0.891090000000     0.918670000000    -0.350665   
O9       O      0.115900000000     0.035050000000     0.900740000000    -0.331013   
O10      O      0.116750000000     0.972620000000     0.971540000000    -0.532716   
O11      O      0.996550000000     0.060180000000     0.860980000000    -0.52016    
O12      O      0.897860000000     0.027900000000     0.901790000000    -0.346844   
O13      O      0.032850000000     0.039120000000     0.948330000000    -0.494434   
O14      O      0.995690000000     0.975850000000     0.911980000000    -0.633509   
O15      O      0.972000000000     0.857910000000     0.017020000000    -0.376695   
O16      O      0.934410000000     0.844360000000     0.963220000000    -0.36889    
O17      O      0.925870000000     0.990360000000     0.050250000000    -0.358888   
O18      O      0.970740000000     0.055670000000     0.036370000000    -0.359182   
O19      O      0.840700000000     0.886180000000     0.979990000000    -0.384142   
O20      O      0.863620000000     0.859140000000     0.942230000000    -0.361159   
O21      O      0.022820000000     0.965040000000     0.084190000000    -0.369969   
O22      O      0.039510000000     0.031700000000     0.072440000000    -0.368285   
O23      O      0.958710000000     0.881290000000     0.079950000000    -0.519762   
O24      O      0.065320000000     0.922960000000     0.048870000000    -0.356751   
O25      O      0.839470000000     0.916860000000     0.039810000000    -0.338899   
O26      O      0.850040000000     0.981310000000     0.975740000000    -0.532726   
O27      O      0.928550000000     0.907730000000     0.997030000000    -0.627972   
O28      O      0.966350000000     0.971560000000     0.032710000000    -0.471597   
O29      O      0.012640000000     0.929280000000     0.971210000000    -0.49157    
O30      O      0.949970000000     0.018870000000     0.973880000000    -0.624949   
O31      O      0.051840000000     0.994490000000     0.007880000000    -0.632228   
O32      O      0.910590000000     0.952240000000     0.937530000000    -0.494198   
O33      O      0.968480000000     0.865500000000     0.436310000000    -0.372282   
O34      O      0.040610000000     0.914810000000     0.427360000000    -0.367667   
O35      O      0.858860000000     0.973090000000     0.414880000000    -0.364878   
O36      O      0.844010000000     0.965310000000     0.472840000000    -0.365435   
O37      O      0.979060000000     0.994980000000     0.358110000000    -0.376915   
O38      O      0.041500000000     0.989050000000     0.374650000000    -0.368775   
O39      O      0.856660000000     0.859000000000     0.492530000000    -0.373968   
O40      O      0.846050000000     0.902710000000     0.521700000000    -0.36201    
O41      O      0.877700000000     0.837380000000     0.432770000000    -0.328267   
O42      O      0.935640000000     0.839140000000     0.513960000000    -0.529563   
O43      O      0.885160000000     0.941090000000     0.363380000000    -0.520196   
O44      O      0.936570000000     0.045730000000     0.377250000000    -0.340892   
O45      O      0.965330000000     0.938880000000     0.421780000000    -0.495792   
O46      O      0.900570000000     0.934100000000     0.455650000000    -0.633974   
O47      O      0.973360000000     0.953070000000     0.588270000000    -0.381025   
O48      O      0.911740000000     0.960510000000     0.571850000000    -0.369729   
O49      O      0.099140000000     0.085740000000     0.462430000000    -0.374236   
O50      O      0.109440000000     0.046150000000     0.427980000000    -0.36042    
O51      O      0.983580000000     0.083790000000     0.507860000000    -0.376884   
O52      O      0.911950000000     0.033910000000     0.517570000000    -0.360669   
O53      O      0.098250000000     0.988170000000     0.530650000000    -0.359385   
O54      O      0.111650000000     0.988300000000     0.473690000000    -0.361091   
O55      O      0.063460000000     0.003240000000     0.587670000000    -0.517785   
O56      O      0.020640000000     0.903640000000     0.566830000000    -0.358245   
O57      O      0.073320000000     0.111330000000     0.515460000000    -0.328655   
O58      O      0.024220000000     0.110640000000     0.432010000000    -0.534395   
O59      O      0.988050000000     0.009830000000     0.525440000000    -0.63215    
O60      O      0.052490000000     0.013970000000     0.490980000000    -0.490908   
O61      O      0.941600000000     0.924320000000     0.521620000000    -0.495897   
O62      O      0.012110000000     0.024750000000     0.425360000000    -0.625973   
O63      O      0.009040000000     0.928790000000     0.488240000000    -0.627224   
O64      O      0.944900000000     0.020010000000     0.458880000000    -0.494032   
O65      O      0.036240000000     0.383620000000     0.989520000000    -0.370212   
O66      O      0.018780000000     0.386450000000     0.930100000000    -0.370135   
O67      O      0.872250000000     0.435620000000     0.023130000000    -0.379077   
O68      O      0.922590000000     0.497970000000     0.042160000000    -0.362981   
O69      O      0.872160000000     0.363570000000     0.938850000000    -0.377904   
O70      O      0.927070000000     0.366890000000     0.907580000000    -0.364875   
O71      O      0.032300000000     0.451820000000     0.078440000000    -0.381508   
O72      O      0.013650000000     0.502140000000     0.078230000000    -0.382278   
O73      O      0.987290000000     0.367600000000     0.054400000000    -0.342101   
O74      O      0.097950000000     0.443990000000     0.039630000000    -0.524912   
O75      O      0.879760000000     0.355650000000     0.022250000000    -0.532109   
O76      O      0.827180000000     0.398860000000     0.963360000000    -0.328449   
O77      O      0.963510000000     0.402100000000     0.974780000000    -0.499301   
O78      O      0.963620000000     0.444210000000     0.025200000000    -0.632871   
O79      O      0.109550000000     0.588940000000     0.993930000000    -0.389587   
O80      O      0.059500000000     0.582840000000     0.031710000000    -0.363293   
O81      O      0.961200000000     0.505670000000     0.857690000000    -0.376459   
O82      O      0.972960000000     0.451390000000     0.857430000000    -0.375375   
O83      O      0.947640000000     0.567370000000     0.947300000000    -0.374942   
O84      O      0.969220000000     0.566910000000     0.005970000000    -0.375594   
O85      O      0.084170000000     0.522470000000     0.893880000000    -0.359429   
O86      O      0.059880000000     0.457000000000     0.888600000000    -0.356749   
O87      O      0.132530000000     0.600910000000     0.926980000000    -0.525062   
O88      O      0.147940000000     0.528520000000     0.973100000000    -0.369308   
O89      O      0.993800000000     0.585150000000     0.883060000000    -0.338152   
O90      O      0.885620000000     0.502840000000     0.896520000000    -0.532939   
O91      O      0.022370000000     0.549310000000     0.961010000000    -0.633142   
O92      O      0.020660000000     0.507120000000     0.911410000000    -0.476492   
O93      O      0.054350000000     0.504590000000     0.011580000000    -0.495786   
O94      O      0.930720000000     0.447180000000     0.923950000000    -0.63465    
O95      O      0.053020000000     0.463080000000     0.961460000000    -0.627489   
O96      O      0.932730000000     0.487850000000     0.974690000000    -0.499086   
O97      O      0.950080000000     0.354400000000     0.519830000000    -0.366507   
O98      O      0.971060000000     0.355290000000     0.464850000000    -0.358744   
O99      O      0.854310000000     0.475410000000     0.468320000000    -0.390476   
O100     O      0.904820000000     0.534120000000     0.493240000000    -0.366856   
O101     O      0.861170000000     0.375500000000     0.425240000000    -0.376489   
O102     O      0.916320000000     0.360540000000     0.418140000000    -0.359797   
O103     O      0.943200000000     0.450920000000     0.575630000000    -0.383335   
O104     O      0.958030000000     0.516920000000     0.561920000000    -0.374782   
O105     O      0.889100000000     0.368680000000     0.554730000000    -0.337753   
O106     O      0.004880000000     0.413510000000     0.577390000000    -0.528782   
O107     O      0.812780000000     0.397980000000     0.456520000000    -0.512729   
O108     O      0.863480000000     0.460560000000     0.385960000000    -0.361097   
O109     O      0.926270000000     0.405940000000     0.470800000000    -0.501363   
O110     O      0.920080000000     0.458790000000     0.503080000000    -0.628935   
O111     O      0.097530000000     0.574340000000     0.514820000000    -0.38469    
O112     O      0.041860000000     0.588570000000     0.521740000000    -0.365974   
O113     O      0.018890000000     0.500690000000     0.358610000000    -0.373648   
O114     O      0.003360000000     0.434690000000     0.372880000000    -0.375055   
O115     O      0.005490000000     0.596520000000     0.412510000000    -0.363539   
O116     O      0.990070000000     0.596390000000     0.469270000000    -0.35906    
O117     O      0.093070000000     0.489550000000     0.440630000000    -0.352985   
O118     O      0.058120000000     0.422190000000     0.440690000000    -0.36305    
O119     O      0.150000000000     0.555570000000     0.490120000000    -0.519635   
O120     O      0.100040000000     0.478980000000     0.537760000000    -0.363973   
O121     O      0.070040000000     0.584280000000     0.378890000000    -0.338711   
O122     O      0.954210000000     0.536100000000     0.355140000000    -0.527995   
O123     O      0.034010000000     0.546880000000     0.462450000000    -0.633482   
O124     O      0.039230000000     0.493280000000     0.430810000000    -0.459321   
O125     O      0.011630000000     0.493310000000     0.526720000000    -0.496974   
O126     O      0.948430000000     0.458370000000     0.406940000000    -0.626573   
O127     O      0.018490000000     0.438170000000     0.493750000000    -0.628779   
O128     O      0.942030000000     0.514250000000     0.440620000000    -0.501128   
O129     O      0.355130000000     0.952410000000     0.926990000000    -0.375847   
O130     O      0.347230000000     0.958880000000     0.983900000000    -0.363864   
O131     O      0.516040000000     0.887870000000     0.991760000000    -0.357413   
O132     O      0.549770000000     0.920090000000     0.941350000000    -0.364936   
O133     O      0.381810000000     0.861910000000     0.025000000000    -0.376799   
O134     O      0.357170000000     0.905430000000     0.035640000000    -0.355086   
O135     O      0.477810000000     0.984010000000     0.866780000000    -0.371564   
O136     O      0.544880000000     0.986400000000     0.883550000000    -0.369978   
O137     O      0.386800000000     0.916250000000     0.879690000000    -0.344625   
O138     O      0.420230000000     0.020890000000     0.878260000000    -0.528428   
O139     O      0.410430000000     0.848140000000     0.944790000000    -0.533168   
O140     O      0.434820000000     0.829260000000     0.022410000000    -0.335247   
O141     O      0.407880000000     0.929450000000     0.970980000000    -0.498171   
O142     O      0.473360000000     0.935030000000     0.936040000000    -0.623483   
O143     O      0.588860000000     0.095490000000     0.943380000000    -0.379414   
O144     O      0.610740000000     0.052470000000     0.926710000000    -0.359776   
O145     O      0.492230000000     0.977900000000     0.097740000000    -0.370839   
O146     O      0.423850000000     0.971860000000     0.080190000000    -0.368048   
O147     O      0.610260000000     0.996210000000     0.038990000000    -0.368465   
O148     O      0.620240000000     0.996480000000     0.980680000000    -0.369336   
O149     O      0.493080000000     0.076180000000     0.024560000000    -0.355611   
O150     O      0.418400000000     0.037550000000     0.022850000000    -0.361652   
O151     O      0.567920000000     0.132850000000     0.986880000000    -0.517217   
O152     O      0.488260000000     0.098390000000     0.931020000000    -0.363147   
O153     O      0.584930000000     0.044700000000     0.080070000000    -0.341196   
O154     O      0.544720000000     0.937080000000     0.089150000000    -0.523044   
O155     O      0.560710000000     0.028510000000     0.993290000000    -0.626595   
O156     O      0.494850000000     0.021870000000     0.027540000000    -0.476259   
O157     O      0.509640000000     0.020930000000     0.928250000000    -0.495831   
O158     O      0.458330000000     0.936190000000     0.036120000000    -0.627482   
O159     O      0.442110000000     0.015300000000     0.961480000000    -0.627528   
O160     O      0.525210000000     0.943060000000     0.002360000000    -0.474203   
O161     O      0.498010000000     0.094300000000     0.437020000000    -0.38357    
O162     O      0.535730000000     0.106260000000     0.491110000000    -0.373184   
O163     O      0.338720000000     0.892100000000     0.487190000000    -0.380992   
O164     O      0.359930000000     0.866240000000     0.446940000000    -0.368472   
O165     O      0.414730000000     0.996650000000     0.556910000000    -0.387711   
O166     O      0.463850000000     0.058620000000     0.534860000000    -0.347975   
O167     O      0.437490000000     0.984760000000     0.372540000000    -0.372272   
O168     O      0.423990000000     0.918840000000     0.382490000000    -0.365427   
O169     O      0.397940000000     0.029750000000     0.411060000000    -0.36347    
O170     O      0.499320000000     0.066720000000     0.373870000000    -0.517767   
O171     O      0.344920000000     0.976600000000     0.492220000000    -0.529386   
O172     O      0.352450000000     0.909680000000     0.557420000000    -0.336854   
O173     O      0.450000000000     0.020360000000     0.485140000000    -0.493529   
O174     O      0.411100000000     0.955770000000     0.448460000000    -0.630544   
O175     O      0.530440000000     0.960140000000     0.403350000000    -0.351406   
O176     O      0.490910000000     0.894350000000     0.417530000000    -0.358321   
O177     O      0.532770000000     0.970520000000     0.592660000000    -0.377704   
O178     O      0.540200000000     0.034200000000     0.581770000000    -0.376083   
O179     O      0.466000000000     0.858370000000     0.529570000000    -0.374716   
O180     O      0.429630000000     0.845860000000     0.475040000000    -0.368987   
O181     O      0.622260000000     0.060530000000     0.476720000000    -0.380149   
O182     O      0.600220000000     0.087860000000     0.515160000000    -0.362749   
O183     O      0.612460000000     0.967090000000     0.471460000000    -0.5361     
O184     O      0.619730000000     0.035810000000     0.412730000000    -0.341143   
O185     O      0.565450000000     0.921120000000     0.553620000000    -0.362262   
O186     O      0.465250000000     0.888090000000     0.593140000000    -0.520557   
O187     O      0.512060000000     0.930120000000     0.480480000000    -0.62408    
O188     O      0.552060000000     0.996620000000     0.516730000000    -0.501401   
O189     O      0.494700000000     0.977960000000     0.422450000000    -0.461314   
O190     O      0.468040000000     0.973050000000     0.543620000000    -0.634562   
O191     O      0.534200000000     0.041560000000     0.458350000000    -0.630114   
O192     O      0.429700000000     0.909500000000     0.507220000000    -0.495736   
O193     O      0.461190000000     0.359050000000     0.033470000000    -0.365646   
O194     O      0.491550000000     0.364690000000     0.981510000000    -0.359008   
O195     O      0.352380000000     0.459490000000     0.989270000000    -0.386733   
O196     O      0.398550000000     0.526090000000     0.998350000000    -0.364037   
O197     O      0.378810000000     0.383850000000     0.923030000000    -0.388077   
O198     O      0.431690000000     0.364770000000     0.936340000000    -0.35432    
O199     O      0.461390000000     0.458760000000     0.092080000000    -0.377371   
O200     O      0.455420000000     0.516180000000     0.075390000000    -0.376609   
O201     O      0.404560000000     0.374250000000     0.075790000000    -0.337852   
O202     O      0.520020000000     0.417960000000     0.090100000000    -0.532775   
O203     O      0.329330000000     0.376530000000     0.981090000000    -0.524081   
O204     O      0.352140000000     0.451650000000     0.911160000000    -0.34519    
O205     O      0.438410000000     0.406630000000     0.987040000000    -0.501335   
O206     O      0.424700000000     0.456010000000     0.019190000000    -0.629304   
O207     O      0.586550000000     0.569650000000     0.045590000000    -0.374144   
O208     O      0.535870000000     0.591360000000     0.032470000000    -0.362515   
O209     O      0.526470000000     0.506680000000     0.875000000000    -0.376316   
O210     O      0.515960000000     0.441900000000     0.888470000000    -0.381252   
O211     O      0.507150000000     0.597980000000     0.928830000000    -0.366229   
O212     O      0.480710000000     0.592930000000     0.982520000000    -0.356492   
O213     O      0.607110000000     0.501600000000     0.959710000000    -0.359646   
O214     O      0.574300000000     0.434330000000     0.957850000000    -0.366171   
O215     O      0.646780000000     0.582220000000     0.990870000000    -0.528245   
O216     O      0.622300000000     0.501860000000     0.048710000000    -0.363609   
O217     O      0.565350000000     0.587980000000     0.888630000000    -0.331005   
O218     O      0.450090000000     0.532370000000     0.872580000000    -0.533365   
O219     O      0.534190000000     0.551350000000     0.977200000000    -0.632658   
O220     O      0.546590000000     0.501380000000     0.946320000000    -0.468963   
O221     O      0.515860000000     0.498570000000     0.040140000000    -0.488515   
O222     O      0.455880000000     0.459340000000     0.923400000000    -0.624958   
O223     O      0.531780000000     0.448210000000     0.009390000000    -0.626917   
O224     O      0.440660000000     0.509720000000     0.954790000000    -0.496279   
O225     O      0.520450000000     0.379110000000     0.503510000000    -0.381158   
O226     O      0.503470000000     0.381910000000     0.444350000000    -0.370791   
O227     O      0.370490000000     0.430240000000     0.547210000000    -0.384065   
O228     O      0.409640000000     0.498040000000     0.550620000000    -0.35655    
O229     O      0.364780000000     0.360930000000     0.455880000000    -0.380474   
O230     O      0.417420000000     0.367690000000     0.420240000000    -0.363649   
O231     O      0.521790000000     0.448440000000     0.592870000000    -0.37125    
O232     O      0.501430000000     0.496950000000     0.594980000000    -0.384625   
O233     O      0.471130000000     0.364320000000     0.568920000000    -0.345468   
O234     O      0.583160000000     0.435430000000     0.554840000000    -0.524048   
O235     O      0.347800000000     0.351930000000     0.527500000000    -0.521591   
O236     O      0.325530000000     0.418530000000     0.469740000000    -0.357951   
O237     O      0.451250000000     0.401160000000     0.488730000000    -0.502434   
O238     O      0.451950000000     0.441520000000     0.539850000000    -0.632875   
O239     O      0.602140000000     0.584500000000     0.514170000000    -0.38703    
O240     O      0.549130000000     0.580220000000     0.548040000000    -0.365827   
O241     O      0.451010000000     0.506290000000     0.373590000000    -0.377505   
O242     O      0.459220000000     0.449890000000     0.372950000000    -0.378174   
O243     O      0.445420000000     0.570550000000     0.464700000000    -0.373909   
O244     O      0.465370000000     0.568330000000     0.523650000000    -0.371207   
O245     O      0.572210000000     0.519900000000     0.411090000000    -0.35539    
O246     O      0.549500000000     0.455670000000     0.402840000000    -0.361267   
O247     O      0.627770000000     0.598240000000     0.447150000000    -0.527291   
O248     O      0.638180000000     0.522410000000     0.489750000000    -0.36744    
O249     O      0.493060000000     0.587050000000     0.399940000000    -0.340342   
O250     O      0.381620000000     0.510650000000     0.413160000000    -0.529263   
O251     O      0.515500000000     0.547970000000     0.478600000000    -0.633033   
O252     O      0.513700000000     0.507130000000     0.427910000000    -0.469683   
O253     O      0.543770000000     0.500840000000     0.528450000000    -0.500995   
O254     O      0.422120000000     0.448640000000     0.438520000000    -0.629718   
O255     O      0.542580000000     0.459990000000     0.477100000000    -0.628717   
O256     O      0.424190000000     0.488650000000     0.489830000000    -0.492595   
S1       S      0.565120000000     0.427530000000     0.648860000000    -0.0175137  
S2       S      0.404890000000     0.529290000000     0.120510000000    -0.0230677  
S3       S      0.355330000000     0.767210000000     0.473720000000    -0.023524   
S4       S      0.517790000000     0.309850000000     0.537010000000    -0.021416   
S5       S      0.564960000000     0.086660000000     0.633240000000    -0.0167056  
S6       S      0.383050000000     0.992230000000     0.126500000000    -0.012035   
S7       S      0.571240000000     0.678040000000     0.906710000000    -0.0208805  
S8       S      0.394500000000     0.279200000000     0.052880000000    -0.0194972  
S9       S      0.713160000000     0.081510000000     0.486440000000    -0.0251139  
S10      S      0.249670000000     0.873060000000     0.485440000000    -0.0259552  
S11      S      0.880140000000     0.592740000000     0.453760000000    -0.0195342  
S12      S      0.286200000000     0.393290000000     0.579820000000    -0.0355696  
S13      S      0.008480000000     0.445220000000     0.799250000000    -0.00555591 
S14      S      0.982300000000     0.385140000000     0.318850000000    -0.0210358  
S15      S      0.609460000000     0.164050000000     0.897060000000    -0.0340423  
S16      S      0.263230000000     0.869570000000     0.033310000000    -0.00790164 
S17      S      0.804890000000     0.393990000000     0.076590000000    -0.0382896  
S18      S      0.115310000000     0.433030000000     0.861020000000    -0.0185696  
S19      S      0.772940000000     0.817300000000     0.451990000000    -0.0324678  
S20      S      0.409320000000     0.289890000000     0.413720000000    -0.0121938  
S21      S      0.805930000000     0.988980000000     0.363450000000    -0.0157742  
S22      S      0.161100000000     0.005370000000     0.584860000000    -0.023115   
S23      S      0.940530000000     0.816210000000     0.376700000000    -0.0196225  
S24      S      0.008850000000     0.133060000000     0.567820000000    -0.0265121  
S25      S      0.878610000000     0.990510000000     0.806180000000    -0.0190709  
S26      S      0.985330000000     0.047730000000     0.299170000000    -0.0324909  
S27      S      0.809610000000     0.779570000000     0.924370000000    -0.019205   
S28      S      0.410780000000     0.284020000000     0.931910000000    -0.00887866 
S29      S      0.934200000000     0.106940000000     0.016420000000    -0.027283   
S30      S      0.277670000000     0.969920000000     0.998800000000    -0.0176864  
S31      S      0.009200000000     0.810370000000     0.045690000000    -0.0291177  
S32      S      0.975080000000     0.145330000000     0.889200000000    -0.036051   
Zr1      Zr     0.063900000000     0.995440000000     0.947220000000     1.38386    
Zr2      Zr     0.963670000000     0.018440000000     0.914390000000     1.38457    
Zr3      Zr     0.997770000000     0.928260000000     0.030650000000     1.37924    
Zr4      Zr     0.898290000000     0.952470000000     0.997690000000     1.37137    
Zr5      Zr     0.019640000000     0.038150000000     0.008950000000     1.3728     
Zr6      Zr     0.943520000000     0.909070000000     0.936680000000     1.36657    
Zr7      Zr     0.931820000000     0.890080000000     0.470460000000     1.38136    
Zr8      Zr     0.934860000000     0.984280000000     0.408500000000     1.37821    
Zr9      Zr     0.018720000000     0.964680000000     0.538460000000     1.37865    
Zr10     Zr     0.021860000000     0.058320000000     0.476940000000     1.38891    
Zr11     Zr     0.042950000000     0.979120000000     0.439730000000     1.35552    
Zr12     Zr     0.910650000000     0.969630000000     0.506880000000     1.361      
Zr13     Zr     0.024050000000     0.432170000000     0.017800000000     1.38362    
Zr14     Zr     0.904580000000     0.415930000000     0.981010000000     1.38671    
Zr15     Zr     0.081050000000     0.534810000000     0.954530000000     1.37228    
Zr16     Zr     0.960940000000     0.519640000000     0.918690000000     1.3799     
Zr17     Zr     0.991310000000     0.434530000000     0.918170000000     1.37802    
Zr18     Zr     0.993740000000     0.516950000000     0.017470000000     1.37749    
Zr19     Zr     0.957980000000     0.421960000000     0.528580000000     1.37995    
Zr20     Zr     0.890440000000     0.443370000000     0.444160000000     1.3874     
Zr21     Zr     0.070140000000     0.509490000000     0.489440000000     1.36162    
Zr22     Zr     0.001540000000     0.529880000000     0.404700000000     1.37423    
Zr23     Zr     0.985900000000     0.421380000000     0.434850000000     1.36567    
Zr24     Zr     0.974340000000     0.530260000000     0.499240000000     1.36975    
Zr25     Zr     0.433250000000     0.971660000000     0.917600000000     1.37557    
Zr26     Zr     0.448920000000     0.894610000000     0.990650000000     1.36223    
Zr27     Zr     0.518880000000     0.062790000000     0.973370000000     1.36793    
Zr28     Zr     0.534870000000     0.985850000000     0.046740000000     1.37521    
Zr29     Zr     0.418000000000     0.972760000000     0.015850000000     1.36471    
Zr30     Zr     0.550470000000     0.985030000000     0.948120000000     1.35902    
Zr31     Zr     0.464640000000     0.022070000000     0.425590000000     1.38247    
Zr32     Zr     0.399480000000     0.953750000000     0.509390000000     1.39024    
Zr33     Zr     0.563340000000     0.996500000000     0.456260000000     1.37023    
Zr34     Zr     0.499670000000     0.930480000000     0.540410000000     1.37837    
Zr35     Zr     0.519610000000     0.040030000000     0.518770000000     1.37085    
Zr36     Zr     0.441760000000     0.911010000000     0.446120000000     1.36803    
Zr37     Zr     0.469680000000     0.426140000000     0.044310000000     1.38072    
Zr38     Zr     0.395470000000     0.437470000000     0.960690000000     1.38752    
Zr39     Zr     0.577320000000     0.520850000000     0.004280000000     1.36889    
Zr40     Zr     0.502890000000     0.531840000000     0.919890000000     1.37912    
Zr41     Zr     0.499690000000     0.428350000000     0.950810000000     1.37066    
Zr42     Zr     0.471530000000     0.528960000000     0.012950000000     1.37362    
Zr43     Zr     0.511250000000     0.428420000000     0.532470000000     1.39002    
Zr44     Zr     0.393150000000     0.416430000000     0.494570000000     1.3818     
Zr45     Zr     0.573170000000     0.532150000000     0.472450000000     1.36667    
Zr46     Zr     0.455200000000     0.521470000000     0.434910000000     1.3858     
Zr47     Zr     0.481400000000     0.434060000000     0.432820000000     1.38034    
Zr48     Zr     0.484050000000     0.514530000000     0.534090000000     1.38034    


