data_structure

_audit_creation_method RASPA-1.0
_audit_creation_date 2023-5-19
_audit_author_name 'Poobodin Mano'

_cell_length_a    46.117
_cell_length_b    46.2192
_cell_length_c    70.4158
_cell_angle_alpha 90
_cell_angle_beta  90
_cell_angle_gamma 90
_cell_volume      150091

_symmetry_cell_setting          triclinic
_symmetry_space_group_name_Hall 'P 1'
_symmetry_space_group_name_H-M  'P 1'
_symmetry_Int_Tables_number     1

_symmetry_equiv_pos_as_xyz 'x,y,z'

loop_
_atom_site_label
_atom_site_type_symbol
_atom_site_fract_x
_atom_site_fract_y
_atom_site_fract_z
_atom_site_charge
C1       C      0.495470000000     0.493280000000     0.492680000000     0.334089   
C2       C      0.096830000000     0.494880000000     0.393940000000     0.334047   
C3       C      0.095560000000     0.493520000000     0.492680000000     0.332412   
C4       C      0.494060000000     0.494780000000     0.393920000000     0.335464   
C5       C      0.493930000000     0.093650000000     0.393960000000     0.333828   
C6       C      0.095280000000     0.095160000000     0.492700000000     0.334112   
C7       C      0.096700000000     0.093740000000     0.393940000000     0.335195   
C8       C      0.495180000000     0.094910000000     0.492700000000     0.332394   
C9       C      0.245460000000     0.345140000000     0.143970000000     0.334289   
C10      C      0.346820000000     0.343650000000     0.242700000000     0.33411    
C11      C      0.345550000000     0.344930000000     0.143950000000     0.332392   
C12      C      0.244050000000     0.343730000000     0.242720000000     0.335338   
C13      C      0.243940000000     0.244860000000     0.242720000000     0.334284   
C14      C      0.345290000000     0.243290000000     0.143970000000     0.334036   
C15      C      0.346710000000     0.244770000000     0.242730000000     0.335425   
C16      C      0.245200000000     0.243510000000     0.143970000000     0.332465   
C17      C      0.110430000000     0.110740000000     0.008250000000    -0.0996682  
C18      C      0.103580000000     0.105110000000     0.027380000000     0.020461   
C19      C      0.118050000000     0.119540000000     0.042010000000    -0.0690631  
C20      C      0.139750000000     0.139960000000     0.037910000000     0.0289508  
C21      C      0.146560000000     0.145690000000     0.018810000000    -0.0697676  
C22      C      0.132080000000     0.131290000000     0.004170000000     0.0211156  
C23      C      0.155310000000     0.155130000000     0.053480000000    -0.000560414
C24      C      0.140200000000     0.165100000000     0.069540000000    -0.0375705  
C25      C      0.154850000000     0.179280000000     0.084210000000    -0.0379549  
C26      C      0.184950000000     0.183830000000     0.083170000000    -8.56022e-05
C27      C      0.200060000000     0.173860000000     0.067100000000    -0.0379033  
C28      C      0.185410000000     0.159680000000     0.052440000000    -0.0375895  
C29      C      0.200520000000     0.198970000000     0.098750000000     0.0281973  
C30      C      0.193730000000     0.193180000000     0.117830000000    -0.0679625  
C31      C      0.208270000000     0.207520000000     0.132490000000     0.0178972  
C32      C      0.229950000000     0.228030000000     0.128420000000    -0.0990254  
C33      C      0.236770000000     0.233730000000     0.109300000000     0.0198533  
C34      C      0.222230000000     0.219370000000     0.094660000000    -0.0682541  
C35      C      0.228480000000     0.229620000000     0.258280000000    -0.0983711  
C36      C      0.206670000000     0.209240000000     0.254230000000     0.0185158  
C37      C      0.192400000000     0.194650000000     0.268880000000    -0.0675973  
C38      C      0.199560000000     0.200050000000     0.287960000000     0.0283321  
C39      C      0.221260000000     0.220480000000     0.292040000000    -0.0678804  
C40      C      0.235530000000     0.235100000000     0.277400000000     0.0202807  
C41      C      0.184550000000     0.184350000000     0.303540000000     0.000186638
C42      C      0.154480000000     0.179520000000     0.302770000000    -0.037726   
C43      C      0.140380000000     0.164710000000     0.317400000000    -0.0375203  
C44      C      0.156020000000     0.154390000000     0.333150000000    -0.000170282
C45      C      0.186090000000     0.159230000000     0.333920000000    -0.0374998  
C46      C      0.200200000000     0.174050000000     0.319280000000    -0.0378528  
C47      C      0.141020000000     0.138670000000     0.348730000000     0.0289065  
C48      C      0.119290000000     0.118280000000     0.344630000000    -0.0683003  
C49      C      0.105040000000     0.103630000000     0.359270000000     0.0204387  
C50      C      0.112130000000     0.109040000000     0.378380000000    -0.0979732  
C51      C      0.133960000000     0.129390000000     0.382450000000     0.0203351  
C52      C      0.148220000000     0.144010000000     0.367800000000    -0.0684756  
C53      C      0.110820000000     0.478040000000     0.008250000000    -0.0976078  
C54      C      0.103990000000     0.483730000000     0.027370000000     0.0196074  
C55      C      0.118510000000     0.469370000000     0.042010000000    -0.0682972  
C56      C      0.140230000000     0.448980000000     0.037910000000     0.0284442  
C57      C      0.147030000000     0.443200000000     0.018830000000    -0.0683529  
C58      C      0.132510000000     0.457540000000     0.004170000000     0.0195623  
C59      C      0.155800000000     0.433840000000     0.053500000000    -8.83375e-05
C60      C      0.140690000000     0.423850000000     0.069560000000    -0.0378463  
C61      C      0.155330000000     0.409670000000     0.084220000000    -0.0376576  
C62      C      0.185430000000     0.405130000000     0.083180000000    -0.000354937
C63      C      0.200550000000     0.415120000000     0.067140000000    -0.037579   
C64      C      0.185900000000     0.429310000000     0.052460000000    -0.0378087  
C65      C      0.200980000000     0.389950000000     0.098770000000     0.0286871  
C66      C      0.194170000000     0.395670000000     0.117850000000    -0.0690284  
C67      C      0.208640000000     0.381270000000     0.132500000000     0.0190941  
C68      C      0.230310000000     0.360740000000     0.128420000000    -0.100403   
C69      C      0.237170000000     0.355110000000     0.109290000000     0.0205536  
C70      C      0.222700000000     0.369550000000     0.094660000000    -0.0687668  
C71      C      0.360440000000     0.227690000000     0.128430000000    -0.100594   
C72      C      0.353550000000     0.233280000000     0.109300000000     0.0206899  
C73      C      0.368020000000     0.218840000000     0.094670000000    -0.0689399  
C74      C      0.389750000000     0.198450000000     0.098780000000     0.0287592  
C75      C      0.396590000000     0.192760000000     0.117870000000    -0.0691961  
C76      C      0.382110000000     0.207180000000     0.132510000000     0.0193089  
C77      C      0.405310000000     0.183270000000     0.083210000000    -0.000414157
C78      C      0.390190000000     0.173250000000     0.067170000000    -0.037566   
C79      C      0.404830000000     0.159070000000     0.052500000000    -0.0377996  
C80      C      0.434940000000     0.154560000000     0.053530000000    -0.000120262
C81      C      0.450050000000     0.164570000000     0.069570000000    -0.0378008  
C82      C      0.435420000000     0.178770000000     0.084240000000    -0.0377289  
C83      C      0.450500000000     0.139420000000     0.037940000000     0.0283749  
C84      C      0.443680000000     0.145190000000     0.018860000000    -0.0683218  
C85      C      0.458220000000     0.130850000000     0.004190000000     0.0195697  
C86      C      0.479930000000     0.110380000000     0.008260000000    -0.0978316  
C87      C      0.486780000000     0.104700000000     0.027380000000     0.0195683  
C88      C      0.472250000000     0.119060000000     0.042030000000    -0.0682132  
C89      C      0.362290000000     0.358890000000     0.258270000000    -0.0981433  
C90      C      0.355230000000     0.353450000000     0.277380000000     0.0201828  
C91      C      0.369500000000     0.368080000000     0.292020000000    -0.0681088  
C92      C      0.391210000000     0.388490000000     0.287930000000     0.0283546  
C93      C      0.398390000000     0.393860000000     0.268860000000    -0.0675687  
C94      C      0.384110000000     0.379270000000     0.254200000000     0.0182838  
C95      C      0.406210000000     0.404200000000     0.303500000000     4.37046e-05
C96      C      0.390560000000     0.414530000000     0.319240000000    -0.0378899  
C97      C      0.404660000000     0.429340000000     0.333870000000    -0.0375553  
C98      C      0.434740000000     0.434170000000     0.333110000000    -0.000230502
C99      C      0.450390000000     0.423830000000     0.317380000000    -0.0375421  
C100     C      0.436290000000     0.409020000000     0.302740000000    -0.0377828  
C101     C      0.449750000000     0.449880000000     0.348690000000     0.0288604  
C102     C      0.442520000000     0.444550000000     0.367760000000    -0.0684212  
C103     C      0.456780000000     0.459160000000     0.382420000000     0.0202679  
C104     C      0.478640000000     0.479490000000     0.378350000000    -0.0978801  
C105     C      0.485750000000     0.484890000000     0.359240000000     0.0204328  
C106     C      0.471490000000     0.470250000000     0.344600000000    -0.068285   
C107     C      0.478460000000     0.108900000000     0.378400000000    -0.0981825  
C108     C      0.485630000000     0.103570000000     0.359290000000     0.0201029  
C109     C      0.471340000000     0.118190000000     0.344650000000    -0.0681105  
C110     C      0.449530000000     0.138500000000     0.348750000000     0.0283332  
C111     C      0.442270000000     0.143770000000     0.367820000000    -0.0675761  
C112     C      0.456540000000     0.129150000000     0.382470000000     0.0182724  
C113     C      0.434500000000     0.154210000000     0.333170000000     4.58295e-05
C114     C      0.426330000000     0.139690000000     0.316470000000    -0.0377922  
C115     C      0.412280000000     0.154480000000     0.301820000000    -0.0375242  
C116     C      0.406070000000     0.184150000000     0.303510000000    -0.000262465
C117     C      0.414240000000     0.198670000000     0.320220000000    -0.0375406  
C118     C      0.428290000000     0.183880000000     0.334880000000    -0.0377247  
C119     C      0.391040000000     0.199860000000     0.287950000000     0.0288373  
C120     C      0.398360000000     0.194640000000     0.268870000000    -0.0684551  
C121     C      0.384110000000     0.209270000000     0.254220000000     0.0203269  
C122     C      0.362140000000     0.229480000000     0.258290000000    -0.0978904  
C123     C      0.354930000000     0.234760000000     0.277410000000     0.0204181  
C124     C      0.369220000000     0.220140000000     0.292040000000    -0.0681809  
C125     C      0.112300000000     0.479630000000     0.378380000000    -0.0981538  
C126     C      0.105190000000     0.485060000000     0.359260000000     0.0200272  
C127     C      0.119470000000     0.470430000000     0.344620000000    -0.0679895  
C128     C      0.141220000000     0.450060000000     0.348700000000     0.0283416  
C129     C      0.148440000000     0.444720000000     0.367780000000    -0.0676219  
C130     C      0.134150000000     0.459300000000     0.382440000000     0.0183569  
C131     C      0.156230000000     0.434360000000     0.333130000000     9.73352e-05
C132     C      0.140560000000     0.423970000000     0.317410000000    -0.0378342  
C133     C      0.154660000000     0.409160000000     0.302780000000    -0.037464   
C134     C      0.184750000000     0.404380000000     0.303510000000    -0.000200431
C135     C      0.200410000000     0.414770000000     0.319230000000    -0.0374768  
C136     C      0.186310000000     0.429580000000     0.333870000000    -0.0376881  
C137     C      0.199750000000     0.388660000000     0.287950000000     0.0288967  
C138     C      0.192490000000     0.393940000000     0.268870000000    -0.0684255  
C139     C      0.206750000000     0.379320000000     0.254220000000     0.0203422  
C140     C      0.228640000000     0.359020000000     0.258280000000    -0.097997   
C141     C      0.235780000000     0.353670000000     0.277400000000     0.0205557  
C142     C      0.221530000000     0.368320000000     0.292030000000    -0.0682605  
C143     C      0.480320000000     0.477670000000     0.008220000000    -0.0994449  
C144     C      0.458690000000     0.457110000000     0.004130000000     0.0210383  
C145     C      0.444210000000     0.442700000000     0.018780000000    -0.0695659  
C146     C      0.451000000000     0.448440000000     0.037870000000     0.0289766  
C147     C      0.472690000000     0.468870000000     0.041980000000    -0.0687576  
C148     C      0.487170000000     0.483310000000     0.027350000000     0.0204732  
C149     C      0.435450000000     0.433270000000     0.053440000000    -0.000399159
C150     C      0.405350000000     0.428700000000     0.052390000000    -0.0375875  
C151     C      0.390700000000     0.414510000000     0.067060000000    -0.0377878  
C152     C      0.405800000000     0.404560000000     0.083130000000    -7.85527e-05
C153     C      0.435900000000     0.409130000000     0.084170000000    -0.0377144  
C154     C      0.450550000000     0.423310000000     0.069510000000    -0.0375882  
C155     C      0.390230000000     0.389440000000     0.098710000000     0.0282317  
C156     C      0.368520000000     0.369030000000     0.094630000000    -0.0681981  
C157     C      0.354000000000     0.354670000000     0.109270000000     0.0198964  
C158     C      0.360800000000     0.360390000000     0.128400000000    -0.0990045  
C159     C      0.382470000000     0.380920000000     0.132460000000     0.0179788  
C160     C      0.397010000000     0.395250000000     0.117800000000    -0.0679047  
H1       H      0.045340000000     0.481420000000     0.416300000000     0.209372   
H2       H      0.109180000000     0.044220000000     0.471680000000     0.203718   
H3       H      0.045430000000     0.107070000000     0.416330000000     0.209613   
H4       H      0.481580000000     0.044230000000     0.471680000000     0.203687   
H5       H      0.148940000000     0.014890000000     0.445260000000     0.123267   
H6       H      0.153130000000     0.076130000000     0.445140000000     0.185303   
H7       H      0.072640000000     0.143200000000     0.454300000000     0.147915   
H8       H      0.008140000000     0.148100000000     0.430930000000     0.198861   
H9       H      0.441820000000     0.073580000000     0.445260000000     0.125175   
H10      H      0.437630000000     0.012340000000     0.445140000000     0.182984   
H11      H      0.018110000000     0.445270000000     0.454260000000     0.147834   
H12      H      0.082630000000     0.440380000000     0.430890000000     0.199179   
H13      H      0.012460000000     0.148030000000     0.454520000000     0.202495   
H14      H      0.442260000000     0.476560000000     0.443000000000     0.202869   
H15      H      0.078300000000     0.440430000000     0.454480000000     0.202533   
H16      H      0.148500000000     0.111920000000     0.443040000000     0.202427   
H17      H      0.295320000000     0.357070000000     0.220340000000     0.209358   
H18      H      0.359180000000     0.294250000000     0.164980000000     0.204072   
H19      H      0.295450000000     0.231420000000     0.220350000000     0.209775   
H20      H      0.231580000000     0.294200000000     0.164980000000     0.203848   
H21      H      0.398940000000     0.323620000000     0.191370000000     0.125364   
H22      H      0.403140000000     0.262380000000     0.191510000000     0.18523    
H23      H      0.322670000000     0.195280000000     0.182400000000     0.148124   
H24      H      0.258170000000     0.190370000000     0.205770000000     0.199358   
H25      H      0.191820000000     0.264850000000     0.191400000000     0.12529    
H26      H      0.187620000000     0.326090000000     0.191520000000     0.185325   
H27      H      0.268090000000     0.393190000000     0.182370000000     0.148144   
H28      H      0.332590000000     0.398110000000     0.205730000000     0.199683   
H29      H      0.262490000000     0.190420000000     0.182180000000     0.202714   
H30      H      0.192230000000     0.361880000000     0.193650000000     0.202494   
H31      H      0.328270000000     0.398050000000     0.182150000000     0.202912   
H32      H      0.398530000000     0.226590000000     0.193650000000     0.202404   
H33      H      0.087090000000     0.089430000000     0.031120000000     0.0370506  
H34      H      0.112530000000     0.114370000000     0.056560000000     0.0456946  
H35      H      0.162900000000     0.161580000000     0.015170000000     0.0458378  
H36      H      0.137940000000     0.136300000000     0.489640000000     0.0324156  
H37      H      0.116940000000     0.162330000000     0.070650000000     0.0373986  
H38      H      0.142500000000     0.187100000000     0.096240000000     0.0376057  
H39      H      0.223320000000     0.176630000000     0.065990000000     0.0375641  
H40      H      0.197770000000     0.151860000000     0.040410000000     0.037246   
H41      H      0.177380000000     0.177310000000     0.121470000000     0.0458312  
H42      H      0.202450000000     0.202450000000     0.147020000000     0.0368477  
H43      H      0.253270000000     0.249400000000     0.105560000000     0.0372435  
H44      H      0.227740000000     0.224580000000     0.080100000000     0.0457637  
H45      H      0.200670000000     0.204340000000     0.239710000000     0.0370954  
H46      H      0.176020000000     0.178780000000     0.265250000000     0.0459957  
H47      H      0.227030000000     0.225430000000     0.306600000000     0.0460459  
H48      H      0.252120000000     0.250680000000     0.281130000000     0.0376251  
H49      H      0.141730000000     0.187560000000     0.290980000000     0.0382193  
H50      H      0.117130000000     0.161740000000     0.316520000000     0.0378217  
H51      H      0.198850000000     0.151190000000     0.345700000000     0.0378045  
H52      H      0.223450000000     0.177020000000     0.320170000000     0.0378949  
H53      H      0.113490000000     0.113370000000     0.330080000000     0.0459079  
H54      H      0.088430000000     0.088070000000     0.355530000000     0.0373453  
H55      H      0.140010000000     0.134220000000     0.396970000000     0.0347721  
H56      H      0.164620000000     0.159840000000     0.371450000000     0.0458715  
H57      H      0.087470000000     0.499390000000     0.031100000000     0.0375264  
H58      H      0.112990000000     0.474570000000     0.056560000000     0.0456916  
H59      H      0.163400000000     0.427340000000     0.015200000000     0.0464167  
H60      H      0.138340000000     0.452490000000     0.489650000000     0.0370123  
H61      H      0.117430000000     0.426610000000     0.070670000000     0.037442   
H62      H      0.142970000000     0.401840000000     0.096250000000     0.0371188  
H63      H      0.223810000000     0.412360000000     0.066030000000     0.037685   
H64      H      0.198260000000     0.437120000000     0.040430000000     0.0378822  
H65      H      0.177810000000     0.411550000000     0.121500000000     0.0452876  
H66      H      0.202780000000     0.386270000000     0.147020000000     0.0324827  
H67      H      0.253660000000     0.339430000000     0.105550000000     0.0370971  
H68      H      0.228230000000     0.364390000000     0.080100000000     0.0459413  
H69      H      0.337040000000     0.248940000000     0.105550000000     0.037044   
H70      H      0.362470000000     0.223980000000     0.080120000000     0.0460155  
H71      H      0.412960000000     0.176900000000     0.121520000000     0.0452899  
H72      H      0.387990000000     0.202200000000     0.147050000000     0.0323838  
H73      H      0.366920000000     0.176000000000     0.066060000000     0.0375748  
H74      H      0.392470000000     0.151220000000     0.040470000000     0.037738   
H75      H      0.473320000000     0.161840000000     0.070680000000     0.0375284  
H76      H      0.447770000000     0.186620000000     0.096260000000     0.0372297  
H77      H      0.427300000000     0.161040000000     0.015220000000     0.0463919  
H78      H      0.452380000000     0.135900000000     0.489680000000     0.0369486  
H79      H      0.003310000000     0.089060000000     0.031120000000     0.0356039  
H80      H      0.477790000000     0.113870000000     0.056590000000     0.0455397  
H81      H      0.338630000000     0.337870000000     0.281110000000     0.0375072  
H82      H      0.363720000000     0.363140000000     0.306570000000     0.0458273  
H83      H      0.414770000000     0.409710000000     0.265210000000     0.0460448  
H84      H      0.390120000000     0.384130000000     0.239680000000     0.037222   
H85      H      0.367310000000     0.411580000000     0.320110000000     0.0376347  
H86      H      0.391910000000     0.437410000000     0.345650000000     0.037689   
H87      H      0.473650000000     0.426780000000     0.316500000000     0.037678   
H88      H      0.449050000000     0.400960000000     0.290960000000     0.0381696  
H89      H      0.426110000000     0.428730000000     0.371400000000     0.0457901  
H90      H      0.450710000000     0.454340000000     0.396930000000     0.0348126  
H91      H      0.002370000000     0.000440000000     0.355510000000     0.0332057  
H92      H      0.477310000000     0.475150000000     0.330050000000     0.0458661  
H93      H      0.002430000000     0.088220000000     0.355560000000     0.0356175  
H94      H      0.477690000000     0.113890000000     0.330120000000     0.0457723  
H95      H      0.425300000000     0.159010000000     0.371450000000     0.0461189  
H96      H      0.450330000000     0.133810000000     0.396980000000     0.0372759  
H97      H      0.430400000000     0.116750000000     0.314830000000     0.0379575  
H98      H      0.405860000000     0.142550000000     0.289250000000     0.0377457  
H99      H      0.410170000000     0.221620000000     0.321870000000     0.0380439  
H100     H      0.434710000000     0.195810000000     0.347440000000     0.0377512  
H101     H      0.415350000000     0.179430000000     0.265260000000     0.0457411  
H102     H      0.390360000000     0.204660000000     0.239710000000     0.0347335  
H103     H      0.338110000000     0.250100000000     0.281130000000     0.0375336  
H104     H      0.362820000000     0.224420000000     0.306570000000     0.0459731  
H105     H      0.088570000000     0.000600000000     0.355530000000     0.0350455  
H106     H      0.113660000000     0.475340000000     0.330070000000     0.0458399  
H107     H      0.164840000000     0.428900000000     0.371410000000     0.0461509  
H108     H      0.140200000000     0.454470000000     0.396950000000     0.0372359  
H109     H      0.117300000000     0.426900000000     0.316550000000     0.0375019  
H110     H      0.141900000000     0.401050000000     0.291010000000     0.0376032  
H111     H      0.223670000000     0.411860000000     0.320100000000     0.0377427  
H112     H      0.199070000000     0.437680000000     0.345640000000     0.0382298  
H113     H      0.176050000000     0.409730000000     0.265230000000     0.0457852  
H114     H      0.200660000000     0.384100000000     0.239710000000     0.0347679  
H115     H      0.252430000000     0.338150000000     0.281140000000     0.0374965  
H116     H      0.227370000000     0.363460000000     0.306580000000     0.0460394  
H117     H      0.452850000000     0.452100000000     0.489610000000     0.0325154  
H118     H      0.427880000000     0.426800000000     0.015120000000     0.0458341  
H119     H      0.478190000000     0.474050000000     0.056540000000     0.0459371  
H120     H      0.003630000000     0.499010000000     0.031100000000     0.0356316  
H121     H      0.393000000000     0.436500000000     0.040350000000     0.0373777  
H122     H      0.367440000000     0.411730000000     0.065940000000     0.037637   
H123     H      0.448250000000     0.401330000000     0.096220000000     0.037707   
H124     H      0.473800000000     0.426090000000     0.070630000000     0.0376635  
H125     H      0.363020000000     0.363790000000     0.080070000000     0.0457781  
H126     H      0.337500000000     0.338980000000     0.105540000000     0.0372741  
H127     H      0.388280000000     0.386000000000     0.146990000000     0.0369603  
H128     H      0.413350000000     0.411130000000     0.121430000000     0.0460197  
O1       O      0.488210000000     0.487110000000     0.475370000000    -0.355367   
O2       O      0.014710000000     0.012280000000     0.497430000000    -0.348677   
O3       O      0.104300000000     0.488900000000     0.411240000000    -0.349288   
O4       O      0.076710000000     0.012970000000     0.389220000000    -0.345952   
O5       O      0.102890000000     0.487380000000     0.475380000000    -0.351621   
O6       O      0.076180000000     0.012380000000     0.497420000000    -0.34666    
O7       O      0.486630000000     0.488750000000     0.411220000000    -0.344819   
O8       O      0.014090000000     0.012950000000     0.389210000000    -0.34773    
O9       O      0.008030000000     0.450260000000     0.442280000000    -0.340867   
O10      O      0.450320000000     0.495800000000     0.443910000000    -0.513347   
O11      O      0.081940000000     0.450780000000     0.442790000000    -0.51315    
O12      O      0.140820000000     0.495180000000     0.443780000000    -0.327521   
O13      O      0.045340000000     0.497980000000     0.462260000000    -0.467947   
O14      O      0.045340000000     0.498160000000     0.424520000000    -0.608906   
O15      O      0.486460000000     0.099610000000     0.411260000000    -0.349293   
O16      O      0.014050000000     0.075560000000     0.389230000000    -0.345468   
O17      O      0.102550000000     0.101330000000     0.475400000000    -0.355508   
O18      O      0.076050000000     0.076150000000     0.497450000000    -0.344887   
O19      O      0.104130000000     0.099750000000     0.411240000000    -0.344796   
O20      O      0.076660000000     0.075560000000     0.389220000000    -0.34377    
O21      O      0.487870000000     0.101060000000     0.475400000000    -0.35176    
O22      O      0.014570000000     0.076050000000     0.497430000000    -0.346023   
O23      O      0.008820000000     0.137700000000     0.442830000000    -0.513459   
O24      O      0.449940000000     0.093290000000     0.443800000000    -0.327669   
O25      O      0.082730000000     0.138220000000     0.442320000000    -0.340377   
O26      O      0.140440000000     0.092660000000     0.443930000000    -0.513166   
O27      O      0.045420000000     0.090330000000     0.424540000000    -0.609037   
O28      O      0.045430000000     0.090480000000     0.462270000000    -0.467928   
O29      O      0.498100000000     0.044300000000     0.422970000000    -0.474097   
O30      O      0.092410000000     0.044190000000     0.463460000000    -0.622594   
O31      O      0.498340000000     0.044260000000     0.463450000000    -0.622682   
O32      O      0.092660000000     0.044190000000     0.422970000000    -0.474011   
O33      O      0.238190000000     0.351320000000     0.161270000000    -0.355579   
O34      O      0.264700000000     0.326150000000     0.139220000000    -0.345035   
O35      O      0.354300000000     0.349620000000     0.225400000000    -0.34937    
O36      O      0.326710000000     0.325550000000     0.247420000000    -0.343974   
O37      O      0.352870000000     0.351080000000     0.161260000000    -0.351466   
O38      O      0.326170000000     0.326060000000     0.139220000000    -0.344238   
O39      O      0.236630000000     0.349740000000     0.225420000000    -0.344834   
O40      O      0.264100000000     0.325550000000     0.247440000000    -0.343696   
O41      O      0.257990000000     0.388210000000     0.194340000000    -0.340471   
O42      O      0.200300000000     0.342630000000     0.192740000000    -0.513103   
O43      O      0.331910000000     0.387710000000     0.193840000000    -0.513895   
O44      O      0.390810000000     0.343320000000     0.192850000000    -0.327655   
O45      O      0.295320000000     0.340480000000     0.174390000000    -0.468056   
O46      O      0.295330000000     0.340320000000     0.212120000000    -0.608952   
O47      O      0.236470000000     0.238870000000     0.225420000000    -0.349331   
O48      O      0.264060000000     0.262950000000     0.247430000000    -0.344045   
O49      O      0.352560000000     0.237130000000     0.161280000000    -0.355545   
O50      O      0.326050000000     0.262290000000     0.139220000000    -0.344763   
O51      O      0.354140000000     0.238750000000     0.225430000000    -0.344781   
O52      O      0.326680000000     0.262950000000     0.247450000000    -0.343891   
O53      O      0.237890000000     0.237370000000     0.161280000000    -0.351605   
O54      O      0.264580000000     0.262380000000     0.139240000000    -0.344384   
O55      O      0.258850000000     0.200760000000     0.193870000000    -0.513519   
O56      O      0.199950000000     0.245150000000     0.192880000000    -0.327645   
O57      O      0.332760000000     0.200260000000     0.194370000000    -0.340647   
O58      O      0.390450000000     0.245840000000     0.192740000000    -0.512982   
O59      O      0.295440000000     0.248150000000     0.212130000000    -0.609276   
O60      O      0.295440000000     0.247980000000     0.174410000000    -0.468139   
O61      O      0.248100000000     0.294170000000     0.213690000000    -0.474023   
O62      O      0.342410000000     0.294280000000     0.173200000000    -0.622916   
O63      O      0.248350000000     0.294180000000     0.173210000000    -0.622882   
O64      O      0.342660000000     0.294310000000     0.213690000000    -0.474034   
Zr1      Zr     0.002100000000     0.002610000000     0.443290000000     1.28136    
Zr2      Zr     0.088580000000     0.002510000000     0.443310000000     1.2855     
Zr3      Zr     0.002180000000     0.085960000000     0.443330000000     1.28766    
Zr4      Zr     0.088660000000     0.085860000000     0.443310000000     1.29063    
Zr5      Zr     0.045380000000     0.044220000000     0.478950000000     1.264      
Zr6      Zr     0.045380000000     0.044250000000     0.407720000000     1.26079    
Zr7      Zr     0.252090000000     0.335850000000     0.193350000000     1.29079    
Zr8      Zr     0.338570000000     0.335980000000     0.193340000000     1.2913     
Zr9      Zr     0.252200000000     0.252500000000     0.193350000000     1.2913     
Zr10     Zr     0.338680000000     0.252620000000     0.193350000000     1.29093    
Zr11     Zr     0.295370000000     0.294230000000     0.157710000000     1.26546    
Zr12     Zr     0.295390000000     0.294240000000     0.228940000000     1.26221    
C161     C      0.495470000000     0.493280000000     0.992680000000     0.332991   
C162     C      0.096830000000     0.494880000000     0.893940000000     0.334039   
C163     C      0.095560000000     0.493520000000     0.992680000000     0.330996   
C164     C      0.494060000000     0.494780000000     0.893920000000     0.335464   
C165     C      0.493930000000     0.093650000000     0.893960000000     0.333837   
C166     C      0.095280000000     0.095160000000     0.992700000000     0.332835   
C167     C      0.096700000000     0.093740000000     0.893940000000     0.335192   
C168     C      0.495180000000     0.094910000000     0.992700000000     0.331017   
C169     C      0.245460000000     0.345140000000     0.643970000000     0.334294   
C170     C      0.346820000000     0.343650000000     0.742700000000     0.334071   
C171     C      0.345550000000     0.344930000000     0.643950000000     0.332352   
C172     C      0.244050000000     0.343730000000     0.742730000000     0.33552    
C173     C      0.243940000000     0.244860000000     0.742720000000     0.334278   
C174     C      0.345290000000     0.243290000000     0.643970000000     0.334008   
C175     C      0.346710000000     0.244770000000     0.742730000000     0.335461   
C176     C      0.245200000000     0.243510000000     0.643970000000     0.332474   
C177     C      0.110430000000     0.110740000000     0.508250000000    -0.100686   
C178     C      0.103580000000     0.105110000000     0.527380000000     0.0205452  
C179     C      0.118050000000     0.119540000000     0.542010000000    -0.0691015  
C180     C      0.139750000000     0.139960000000     0.537910000000     0.0286928  
C181     C      0.146560000000     0.145690000000     0.518820000000    -0.0691919  
C182     C      0.132080000000     0.131290000000     0.504170000000     0.0191639  
C183     C      0.155310000000     0.155130000000     0.553480000000    -0.000540783
C184     C      0.140200000000     0.165100000000     0.569540000000    -0.0376358  
C185     C      0.154850000000     0.179280000000     0.584210000000    -0.0379347  
C186     C      0.184950000000     0.183830000000     0.583160000000    -8.92677e-05
C187     C      0.200060000000     0.173860000000     0.567100000000    -0.0379545  
C188     C      0.185410000000     0.159680000000     0.552440000000    -0.0376584  
C189     C      0.200520000000     0.198970000000     0.598750000000     0.0281385  
C190     C      0.193730000000     0.193180000000     0.617840000000    -0.0679841  
C191     C      0.208270000000     0.207520000000     0.632490000000     0.0179376  
C192     C      0.229950000000     0.228030000000     0.628420000000    -0.0990424  
C193     C      0.236770000000     0.233730000000     0.609300000000     0.0198371  
C194     C      0.222230000000     0.219370000000     0.594660000000    -0.0682509  
C195     C      0.228480000000     0.229620000000     0.758280000000    -0.0983462  
C196     C      0.206670000000     0.209240000000     0.754230000000     0.018468   
C197     C      0.192400000000     0.194650000000     0.768890000000    -0.0675603  
C198     C      0.199560000000     0.200050000000     0.787960000000     0.0283476  
C199     C      0.221260000000     0.220480000000     0.792040000000    -0.0678821  
C200     C      0.235530000000     0.235100000000     0.777400000000     0.0202729  
C201     C      0.184550000000     0.184350000000     0.803540000000     0.000204899
C202     C      0.154480000000     0.179520000000     0.802770000000    -0.0378006  
C203     C      0.140380000000     0.164710000000     0.817400000000    -0.0374731  
C204     C      0.156020000000     0.154390000000     0.833150000000    -0.000232239
C205     C      0.186090000000     0.159230000000     0.833920000000    -0.0374052  
C206     C      0.200200000000     0.174050000000     0.819290000000    -0.0379011  
C207     C      0.141020000000     0.138670000000     0.848730000000     0.0289222  
C208     C      0.119290000000     0.118280000000     0.844630000000    -0.0683143  
C209     C      0.105040000000     0.103630000000     0.859270000000     0.0204438  
C210     C      0.112130000000     0.109040000000     0.878380000000    -0.0979943  
C211     C      0.133960000000     0.129390000000     0.882450000000     0.0203229  
C212     C      0.148220000000     0.144010000000     0.867800000000    -0.0685074  
C213     C      0.110820000000     0.478040000000     0.508250000000    -0.0986798  
C214     C      0.103990000000     0.483730000000     0.527370000000     0.0197028  
C215     C      0.118510000000     0.469370000000     0.542010000000    -0.0683007  
C216     C      0.140230000000     0.448980000000     0.537920000000     0.0280916  
C217     C      0.147030000000     0.443200000000     0.518830000000    -0.0677353  
C218     C      0.132510000000     0.457540000000     0.504170000000     0.0176666  
C219     C      0.155800000000     0.433840000000     0.553510000000    -4.71894e-06
C220     C      0.140690000000     0.423850000000     0.569560000000    -0.0379372  
C221     C      0.155330000000     0.409670000000     0.584220000000    -0.037655   
C222     C      0.185430000000     0.405130000000     0.583180000000    -0.000388177
C223     C      0.200550000000     0.415120000000     0.567140000000    -0.0375991  
C224     C      0.185900000000     0.429310000000     0.552460000000    -0.0379115  
C225     C      0.200980000000     0.389950000000     0.598760000000     0.0286353  
C226     C      0.194170000000     0.395670000000     0.617850000000    -0.0690057  
C227     C      0.208640000000     0.381270000000     0.632500000000     0.0191158  
C228     C      0.230310000000     0.360740000000     0.628420000000    -0.100416   
C229     C      0.237170000000     0.355110000000     0.609290000000     0.0205369  
C230     C      0.222700000000     0.369550000000     0.594660000000    -0.0687642  
C231     C      0.360440000000     0.227690000000     0.628430000000    -0.100615   
C232     C      0.353550000000     0.233280000000     0.609310000000     0.0207025  
C233     C      0.368020000000     0.218840000000     0.594670000000    -0.0689587  
C234     C      0.389750000000     0.198450000000     0.598780000000     0.0287484  
C235     C      0.396590000000     0.192760000000     0.617870000000    -0.0692023  
C236     C      0.382110000000     0.207180000000     0.632510000000     0.0193129  
C237     C      0.405310000000     0.183270000000     0.583210000000    -0.000454888
C238     C      0.390190000000     0.173250000000     0.567170000000    -0.0375708  
C239     C      0.404830000000     0.159070000000     0.552500000000    -0.0379395  
C240     C      0.434940000000     0.154560000000     0.553530000000    -8.39099e-05
C241     C      0.450050000000     0.164570000000     0.569570000000    -0.0378665  
C242     C      0.435420000000     0.178770000000     0.584240000000    -0.037732   
C243     C      0.450500000000     0.139420000000     0.537940000000     0.0281297  
C244     C      0.443680000000     0.145190000000     0.518850000000    -0.0678798  
C245     C      0.458220000000     0.130850000000     0.504200000000     0.017819   
C246     C      0.479930000000     0.110380000000     0.508270000000    -0.0989283  
C247     C      0.486780000000     0.104700000000     0.527380000000     0.0197686  
C248     C      0.472250000000     0.119060000000     0.542030000000    -0.0683784  
C249     C      0.362290000000     0.358890000000     0.758270000000    -0.0981161  
C250     C      0.355230000000     0.353450000000     0.777380000000     0.0201736  
C251     C      0.369500000000     0.368080000000     0.792020000000    -0.0680995  
C252     C      0.391210000000     0.388490000000     0.787930000000     0.0283522  
C253     C      0.398390000000     0.393860000000     0.768860000000    -0.0675551  
C254     C      0.384110000000     0.379270000000     0.754200000000     0.0182802  
C255     C      0.406210000000     0.404200000000     0.803500000000     4.86418e-05
C256     C      0.390560000000     0.414530000000     0.819240000000    -0.037894   
C257     C      0.404660000000     0.429340000000     0.833870000000    -0.0375634  
C258     C      0.434740000000     0.434170000000     0.833110000000    -0.000241448
C259     C      0.450390000000     0.423830000000     0.817380000000    -0.0375389  
C260     C      0.436290000000     0.409020000000     0.802740000000    -0.0377855  
C261     C      0.449750000000     0.449880000000     0.848690000000     0.0288653  
C262     C      0.442520000000     0.444550000000     0.867760000000    -0.0684645  
C263     C      0.456780000000     0.459160000000     0.882420000000     0.0202975  
C264     C      0.478640000000     0.479490000000     0.878350000000    -0.0979169  
C265     C      0.485750000000     0.484890000000     0.859240000000     0.0204442  
C266     C      0.471490000000     0.470250000000     0.844600000000    -0.0682973  
C267     C      0.478460000000     0.108900000000     0.878400000000    -0.0982339  
C268     C      0.485630000000     0.103570000000     0.859290000000     0.0201489  
C269     C      0.471340000000     0.118190000000     0.844650000000    -0.068147   
C270     C      0.449530000000     0.138500000000     0.848750000000     0.0283617  
C271     C      0.442270000000     0.143770000000     0.867820000000    -0.0676338  
C272     C      0.456540000000     0.129150000000     0.882470000000     0.0183146  
C273     C      0.434500000000     0.154210000000     0.833170000000    -1.32826e-06
C274     C      0.426330000000     0.139690000000     0.816470000000    -0.0377243  
C275     C      0.412280000000     0.154480000000     0.801820000000    -0.037642   
C276     C      0.406070000000     0.184150000000     0.803520000000    -0.000171899
C277     C      0.414240000000     0.198670000000     0.820220000000    -0.0376014  
C278     C      0.428290000000     0.183880000000     0.834880000000    -0.0376954  
C279     C      0.391040000000     0.199860000000     0.787950000000     0.0287899  
C280     C      0.398360000000     0.194640000000     0.768870000000    -0.0684136  
C281     C      0.384110000000     0.209270000000     0.754220000000     0.0202841  
C282     C      0.362140000000     0.229480000000     0.758290000000    -0.0978742  
C283     C      0.354930000000     0.234760000000     0.777410000000     0.0204041  
C284     C      0.369220000000     0.220140000000     0.792040000000    -0.0681557  
C285     C      0.112300000000     0.479630000000     0.878380000000    -0.0981534  
C286     C      0.105190000000     0.485060000000     0.859260000000     0.0200255  
C287     C      0.119470000000     0.470430000000     0.844620000000    -0.0680035  
C288     C      0.141220000000     0.450060000000     0.848700000000     0.0283713  
C289     C      0.148440000000     0.444720000000     0.867770000000    -0.067621   
C290     C      0.134150000000     0.459300000000     0.882440000000     0.0182947  
C291     C      0.156230000000     0.434360000000     0.833130000000     7.07615e-05
C292     C      0.140560000000     0.423970000000     0.817410000000    -0.0378107  
C293     C      0.154660000000     0.409160000000     0.802780000000    -0.0374942  
C294     C      0.184750000000     0.404380000000     0.803520000000    -0.000163289
C295     C      0.200410000000     0.414770000000     0.819230000000    -0.0375103  
C296     C      0.186310000000     0.429580000000     0.833870000000    -0.0376766  
C297     C      0.199750000000     0.388660000000     0.787950000000     0.0289086  
C298     C      0.192490000000     0.393940000000     0.768870000000    -0.0684606  
C299     C      0.206750000000     0.379320000000     0.754220000000     0.0204517  
C300     C      0.228640000000     0.359020000000     0.758280000000    -0.0981905  
C301     C      0.235780000000     0.353670000000     0.777400000000     0.0206338  
C302     C      0.221530000000     0.368320000000     0.792030000000    -0.0682909  
C303     C      0.480320000000     0.477670000000     0.508220000000    -0.100408   
C304     C      0.458690000000     0.457110000000     0.504130000000     0.0191139  
C305     C      0.444210000000     0.442700000000     0.518780000000    -0.0690199  
C306     C      0.451000000000     0.448440000000     0.537870000000     0.0286852  
C307     C      0.472690000000     0.468870000000     0.541980000000    -0.0687695  
C308     C      0.487170000000     0.483310000000     0.527350000000     0.0205348  
C309     C      0.435450000000     0.433270000000     0.553440000000    -0.000371741
C310     C      0.405350000000     0.428700000000     0.552390000000    -0.0376634  
C311     C      0.390700000000     0.414510000000     0.567060000000    -0.0378219  
C312     C      0.405800000000     0.404560000000     0.583130000000    -9.91496e-05
C313     C      0.435900000000     0.409130000000     0.584170000000    -0.0377262  
C314     C      0.450550000000     0.423310000000     0.569510000000    -0.0376467  
C315     C      0.390230000000     0.389440000000     0.598710000000     0.0282028  
C316     C      0.368520000000     0.369030000000     0.594630000000    -0.0682244  
C317     C      0.354000000000     0.354670000000     0.609280000000     0.0199406  
C318     C      0.360800000000     0.360390000000     0.628390000000    -0.0989421  
C319     C      0.382470000000     0.380920000000     0.632460000000     0.0178992  
C320     C      0.397010000000     0.395250000000     0.617800000000    -0.0678529  
H129     H      0.045340000000     0.481420000000     0.916300000000     0.209351   
H130     H      0.109180000000     0.044220000000     0.971680000000     0.203322   
H131     H      0.045430000000     0.107070000000     0.916330000000     0.209594   
H132     H      0.481580000000     0.044230000000     0.971680000000     0.203526   
H133     H      0.148940000000     0.014890000000     0.945260000000     0.123179   
H134     H      0.153130000000     0.076130000000     0.945140000000     0.185156   
H135     H      0.072640000000     0.143200000000     0.954300000000     0.147752   
H136     H      0.008140000000     0.148100000000     0.930930000000     0.198759   
H137     H      0.441820000000     0.073580000000     0.945260000000     0.125069   
H138     H      0.437630000000     0.012340000000     0.945140000000     0.182824   
H139     H      0.018110000000     0.445270000000     0.954260000000     0.147664   
H140     H      0.082630000000     0.440380000000     0.930890000000     0.198821   
H141     H      0.012460000000     0.148030000000     0.954520000000     0.202277   
H142     H      0.442260000000     0.476560000000     0.943000000000     0.202696   
H143     H      0.078300000000     0.440430000000     0.954480000000     0.202565   
H144     H      0.148500000000     0.111920000000     0.943040000000     0.202258   
H145     H      0.295320000000     0.357070000000     0.720340000000     0.209351   
H146     H      0.359180000000     0.294250000000     0.664980000000     0.20407    
H147     H      0.295450000000     0.231420000000     0.720350000000     0.209787   
H148     H      0.231580000000     0.294200000000     0.664990000000     0.204085   
H149     H      0.398940000000     0.323620000000     0.691370000000     0.125339   
H150     H      0.403140000000     0.262380000000     0.691510000000     0.185232   
H151     H      0.322670000000     0.195280000000     0.682390000000     0.147916   
H152     H      0.258170000000     0.190370000000     0.705760000000     0.199712   
H153     H      0.191820000000     0.264850000000     0.691400000000     0.125285   
H154     H      0.187620000000     0.326090000000     0.691520000000     0.185332   
H155     H      0.268090000000     0.393190000000     0.682370000000     0.148145   
H156     H      0.332590000000     0.398110000000     0.705730000000     0.199443   
H157     H      0.262490000000     0.190420000000     0.682180000000     0.202825   
H158     H      0.192230000000     0.361880000000     0.693640000000     0.202523   
H159     H      0.328270000000     0.398050000000     0.682150000000     0.203157   
H160     H      0.398530000000     0.226590000000     0.693660000000     0.202386   
H161     H      0.087090000000     0.089430000000     0.531120000000     0.0366821  
H162     H      0.112530000000     0.114370000000     0.556560000000     0.0456452  
H163     H      0.162900000000     0.161580000000     0.515170000000     0.0453442  
H164     H      0.137940000000     0.136300000000     0.989640000000     0.0309251  
H165     H      0.116940000000     0.162330000000     0.570660000000     0.0373573  
H166     H      0.142500000000     0.187100000000     0.596250000000     0.037552   
H167     H      0.223320000000     0.176630000000     0.565990000000     0.0374896  
H168     H      0.197770000000     0.151860000000     0.540410000000     0.0371031  
H169     H      0.177380000000     0.177310000000     0.621470000000     0.0458389  
H170     H      0.202450000000     0.202450000000     0.647020000000     0.0368406  
H171     H      0.253270000000     0.249400000000     0.605560000000     0.037215   
H172     H      0.227740000000     0.224580000000     0.580100000000     0.0456863  
H173     H      0.200670000000     0.204340000000     0.739710000000     0.037112   
H174     H      0.176020000000     0.178780000000     0.765250000000     0.0459888  
H175     H      0.227030000000     0.225430000000     0.806600000000     0.046026   
H176     H      0.252120000000     0.250680000000     0.781130000000     0.0376212  
H177     H      0.141730000000     0.187560000000     0.790990000000     0.0382636  
H178     H      0.117130000000     0.161740000000     0.816520000000     0.0378085  
H179     H      0.198850000000     0.151190000000     0.845710000000     0.0377258  
H180     H      0.223450000000     0.177020000000     0.820170000000     0.0378887  
H181     H      0.113490000000     0.113370000000     0.830080000000     0.045918   
H182     H      0.088430000000     0.088070000000     0.855530000000     0.0373466  
H183     H      0.140010000000     0.134220000000     0.896970000000     0.0347043  
H184     H      0.164620000000     0.159840000000     0.871450000000     0.0458159  
H185     H      0.087470000000     0.499390000000     0.531100000000     0.0371526  
H186     H      0.112990000000     0.474570000000     0.556560000000     0.0456366  
H187     H      0.163400000000     0.427340000000     0.515190000000     0.0459163  
H188     H      0.138340000000     0.452490000000     0.989650000000     0.03554    
H189     H      0.117430000000     0.426610000000     0.570670000000     0.0374115  
H190     H      0.142970000000     0.401840000000     0.596250000000     0.0370936  
H191     H      0.223810000000     0.412360000000     0.566030000000     0.0376053  
H192     H      0.198260000000     0.437120000000     0.540430000000     0.0377549  
H193     H      0.177810000000     0.411550000000     0.621500000000     0.0452793  
H194     H      0.202780000000     0.386270000000     0.647030000000     0.0324739  
H195     H      0.253660000000     0.339430000000     0.605550000000     0.0370682  
H196     H      0.228230000000     0.364390000000     0.580100000000     0.0458644  
H197     H      0.337040000000     0.248940000000     0.605560000000     0.0370177  
H198     H      0.362470000000     0.223980000000     0.580120000000     0.0459458  
H199     H      0.412960000000     0.176900000000     0.621520000000     0.0452898  
H200     H      0.387990000000     0.202200000000     0.647050000000     0.0323923  
H201     H      0.366920000000     0.176000000000     0.566060000000     0.0374872  
H202     H      0.392470000000     0.151220000000     0.540480000000     0.0376328  
H203     H      0.473320000000     0.161840000000     0.570680000000     0.037493   
H204     H      0.447770000000     0.186620000000     0.596260000000     0.0372071  
H205     H      0.427300000000     0.161040000000     0.515220000000     0.0459537  
H206     H      0.452380000000     0.135900000000     0.989680000000     0.0355109  
H207     H      0.003310000000     0.089060000000     0.531120000000     0.0351521  
H208     H      0.477790000000     0.113870000000     0.556580000000     0.0455577  
H209     H      0.338630000000     0.337870000000     0.781110000000     0.0375054  
H210     H      0.363720000000     0.363140000000     0.806570000000     0.0458068  
H211     H      0.414770000000     0.409710000000     0.765210000000     0.0460555  
H212     H      0.390120000000     0.384130000000     0.739680000000     0.0372409  
H213     H      0.367310000000     0.411580000000     0.820120000000     0.0376143  
H214     H      0.391910000000     0.437410000000     0.845650000000     0.0376544  
H215     H      0.473650000000     0.426780000000     0.816500000000     0.0376787  
H216     H      0.449050000000     0.400960000000     0.790960000000     0.0381774  
H217     H      0.426110000000     0.428730000000     0.871400000000     0.0457384  
H218     H      0.450710000000     0.454340000000     0.896940000000     0.0347353  
H219     H      0.002370000000     0.000440000000     0.855510000000     0.033198   
H220     H      0.477310000000     0.475150000000     0.830050000000     0.0458768  
H221     H      0.002430000000     0.088220000000     0.855550000000     0.0355957  
H222     H      0.477690000000     0.113890000000     0.830120000000     0.0457877  
H223     H      0.425300000000     0.159010000000     0.871450000000     0.0460709  
H224     H      0.450330000000     0.133810000000     0.896990000000     0.0371931  
H225     H      0.430400000000     0.116750000000     0.814820000000     0.0379366  
H226     H      0.405860000000     0.142550000000     0.789260000000     0.037801   
H227     H      0.410170000000     0.221620000000     0.821870000000     0.0380373  
H228     H      0.434710000000     0.195810000000     0.847440000000     0.0377043  
H229     H      0.415350000000     0.179430000000     0.765260000000     0.0457411  
H230     H      0.390360000000     0.204660000000     0.739720000000     0.0347474  
H231     H      0.338110000000     0.250100000000     0.781130000000     0.0375312  
H232     H      0.362820000000     0.224420000000     0.806570000000     0.0459464  
H233     H      0.088570000000     0.000600000000     0.855530000000     0.0350426  
H234     H      0.113660000000     0.475340000000     0.830070000000     0.0458512  
H235     H      0.164840000000     0.428900000000     0.871410000000     0.0460793  
H236     H      0.140200000000     0.454470000000     0.896950000000     0.0371778  
H237     H      0.117300000000     0.426900000000     0.816540000000     0.0374935  
H238     H      0.141900000000     0.401050000000     0.791010000000     0.0376149  
H239     H      0.223670000000     0.411860000000     0.820100000000     0.0377322  
H240     H      0.199070000000     0.437680000000     0.845640000000     0.0381919  
H241     H      0.176050000000     0.409730000000     0.765230000000     0.0458055  
H242     H      0.200660000000     0.384100000000     0.739710000000     0.0347573  
H243     H      0.252430000000     0.338150000000     0.781140000000     0.0374656  
H244     H      0.227370000000     0.363460000000     0.806580000000     0.0460268  
H245     H      0.452850000000     0.452100000000     0.989600000000     0.0310421  
H246     H      0.427880000000     0.426800000000     0.515130000000     0.0453743  
H247     H      0.478190000000     0.474050000000     0.556540000000     0.0458883  
H248     H      0.003630000000     0.499010000000     0.531100000000     0.0352312  
H249     H      0.393000000000     0.436500000000     0.540350000000     0.0372393  
H250     H      0.367440000000     0.411730000000     0.565940000000     0.0375606  
H251     H      0.448250000000     0.401330000000     0.596220000000     0.0376889  
H252     H      0.473800000000     0.426090000000     0.570630000000     0.0376281  
H253     H      0.363020000000     0.363790000000     0.580070000000     0.0457091  
H254     H      0.337500000000     0.338980000000     0.605540000000     0.0372249  
H255     H      0.388280000000     0.386000000000     0.646990000000     0.0369734  
H256     H      0.413350000000     0.411130000000     0.621440000000     0.045995   
O65      O      0.488210000000     0.487110000000     0.975380000000    -0.355424   
O66      O      0.014710000000     0.012280000000     0.997430000000    -0.34899    
O67      O      0.104300000000     0.488900000000     0.911240000000    -0.349326   
O68      O      0.076710000000     0.012970000000     0.889220000000    -0.345966   
O69      O      0.102890000000     0.487380000000     0.975380000000    -0.351564   
O70      O      0.076180000000     0.012380000000     0.997420000000    -0.346902   
O71      O      0.486630000000     0.488750000000     0.911220000000    -0.344839   
O72      O      0.014090000000     0.012950000000     0.889210000000    -0.347732   
O73      O      0.008030000000     0.450260000000     0.942280000000    -0.340956   
O74      O      0.450320000000     0.495800000000     0.943910000000    -0.513348   
O75      O      0.081940000000     0.450780000000     0.942800000000    -0.513144   
O76      O      0.140820000000     0.495180000000     0.943780000000    -0.327682   
O77      O      0.045340000000     0.497980000000     0.962260000000    -0.467962   
O78      O      0.045340000000     0.498160000000     0.924520000000    -0.608883   
O79      O      0.486460000000     0.099610000000     0.911260000000    -0.34932    
O80      O      0.014050000000     0.075560000000     0.889230000000    -0.345466   
O81      O      0.102550000000     0.101330000000     0.975400000000    -0.355475   
O82      O      0.076050000000     0.076150000000     0.997440000000    -0.345264   
O83      O      0.104130000000     0.099750000000     0.911240000000    -0.344834   
O84      O      0.076660000000     0.075560000000     0.889220000000    -0.343782   
O85      O      0.487870000000     0.101060000000     0.975400000000    -0.351697   
O86      O      0.014570000000     0.076050000000     0.997430000000    -0.346258   
O87      O      0.008820000000     0.137700000000     0.942830000000    -0.513441   
O88      O      0.449940000000     0.093290000000     0.943800000000    -0.327823   
O89      O      0.082730000000     0.138220000000     0.942320000000    -0.340482   
O90      O      0.140440000000     0.092660000000     0.943930000000    -0.513169   
O91      O      0.045420000000     0.090330000000     0.924540000000    -0.609017   
O92      O      0.045430000000     0.090480000000     0.962270000000    -0.46793    
O93      O      0.498100000000     0.044300000000     0.922970000000    -0.474078   
O94      O      0.092410000000     0.044190000000     0.963450000000    -0.622362   
O95      O      0.498340000000     0.044260000000     0.963450000000    -0.622594   
O96      O      0.092660000000     0.044190000000     0.922980000000    -0.474104   
O97      O      0.238190000000     0.351320000000     0.661270000000    -0.355585   
O98      O      0.264700000000     0.326150000000     0.639220000000    -0.345043   
O99      O      0.354300000000     0.349620000000     0.725400000000    -0.349232   
O100     O      0.326710000000     0.325550000000     0.747420000000    -0.34395    
O101     O      0.352870000000     0.351080000000     0.661260000000    -0.351577   
O102     O      0.326170000000     0.326060000000     0.639220000000    -0.34425    
O103     O      0.236630000000     0.349740000000     0.725430000000    -0.344762   
O104     O      0.264100000000     0.325550000000     0.747440000000    -0.34377    
O105     O      0.257990000000     0.388210000000     0.694340000000    -0.340468   
O106     O      0.200300000000     0.342630000000     0.692740000000    -0.513143   
O107     O      0.331910000000     0.387710000000     0.693830000000    -0.513883   
O108     O      0.390810000000     0.343320000000     0.692860000000    -0.327617   
O109     O      0.295320000000     0.340480000000     0.674390000000    -0.468117   
O110     O      0.295330000000     0.340320000000     0.712120000000    -0.608877   
O111     O      0.236470000000     0.238870000000     0.725420000000    -0.349322   
O112     O      0.264060000000     0.262950000000     0.747430000000    -0.34404    
O113     O      0.352560000000     0.237130000000     0.661280000000    -0.355409   
O114     O      0.326050000000     0.262290000000     0.639220000000    -0.344748   
O115     O      0.354140000000     0.238750000000     0.725430000000    -0.344897   
O116     O      0.326680000000     0.262950000000     0.747450000000    -0.343907   
O117     O      0.237890000000     0.237370000000     0.661280000000    -0.351599   
O118     O      0.264580000000     0.262380000000     0.639240000000    -0.34438    
O119     O      0.258850000000     0.200760000000     0.693870000000    -0.513936   
O120     O      0.199950000000     0.245150000000     0.692880000000    -0.327634   
O121     O      0.332760000000     0.200260000000     0.694370000000    -0.340433   
O122     O      0.390450000000     0.245840000000     0.692740000000    -0.51294    
O123     O      0.295440000000     0.248150000000     0.712130000000    -0.60937    
O124     O      0.295440000000     0.247980000000     0.674400000000    -0.46797    
O125     O      0.248100000000     0.294170000000     0.713690000000    -0.474015   
O126     O      0.342410000000     0.294280000000     0.673200000000    -0.622915   
O127     O      0.248350000000     0.294180000000     0.673210000000    -0.623121   
O128     O      0.342660000000     0.294310000000     0.713690000000    -0.474022   
Zr13     Zr     0.002100000000     0.002610000000     0.943290000000     1.2812     
Zr14     Zr     0.088580000000     0.002510000000     0.943310000000     1.28561    
Zr15     Zr     0.002180000000     0.085960000000     0.943330000000     1.28756    
Zr16     Zr     0.088660000000     0.085860000000     0.943310000000     1.29075    
Zr17     Zr     0.045380000000     0.044220000000     0.978950000000     1.26363    
Zr18     Zr     0.045380000000     0.044250000000     0.907720000000     1.26079    
Zr19     Zr     0.252090000000     0.335850000000     0.693350000000     1.29074    
Zr20     Zr     0.338570000000     0.335980000000     0.693330000000     1.29131    
Zr21     Zr     0.252200000000     0.252500000000     0.693350000000     1.29128    
Zr22     Zr     0.338680000000     0.252620000000     0.693360000000     1.29083    
Zr23     Zr     0.295370000000     0.294230000000     0.657710000000     1.26554    
Zr24     Zr     0.295390000000     0.294240000000     0.728940000000     1.26224    
C321     C      0.495470000000     0.993280000000     0.492680000000     0.336542   
C322     C      0.096830000000     0.994870000000     0.393940000000     0.33699    
C323     C      0.095560000000     0.993520000000     0.492680000000     0.334925   
C324     C      0.494060000000     0.994780000000     0.393920000000     0.338606   
C325     C      0.493930000000     0.593650000000     0.393960000000     0.333936   
C326     C      0.095280000000     0.595150000000     0.492700000000     0.334228   
C327     C      0.096700000000     0.593740000000     0.393940000000     0.335272   
C328     C      0.495180000000     0.594910000000     0.492700000000     0.332457   
C329     C      0.245460000000     0.845140000000     0.143970000000     0.334291   
C330     C      0.346820000000     0.843650000000     0.242700000000     0.334271   
C331     C      0.345550000000     0.844930000000     0.143950000000     0.3324     
C332     C      0.244050000000     0.843720000000     0.242720000000     0.335492   
C333     C      0.243940000000     0.744850000000     0.242720000000     0.334299   
C334     C      0.345290000000     0.743300000000     0.143970000000     0.334098   
C335     C      0.346710000000     0.744780000000     0.242730000000     0.335483   
C336     C      0.245200000000     0.743510000000     0.143970000000     0.332468   
C337     C      0.110430000000     0.610740000000     0.008250000000    -0.0995652  
C338     C      0.103580000000     0.605110000000     0.027380000000     0.0205242  
C339     C      0.118050000000     0.619550000000     0.042010000000    -0.0689584  
C340     C      0.139750000000     0.639960000000     0.037910000000     0.0290096  
C341     C      0.146560000000     0.645690000000     0.018810000000    -0.0697186  
C342     C      0.132080000000     0.631290000000     0.004170000000     0.0211194  
C343     C      0.155310000000     0.655130000000     0.053480000000    -0.000511184
C344     C      0.140200000000     0.665100000000     0.069540000000    -0.0375254  
C345     C      0.154850000000     0.679290000000     0.084210000000    -0.0379434  
C346     C      0.184950000000     0.683830000000     0.083170000000    -2.998e-05  
C347     C      0.200060000000     0.673860000000     0.067100000000    -0.0378631  
C348     C      0.185410000000     0.659680000000     0.052440000000    -0.0375348  
C349     C      0.200520000000     0.698970000000     0.098750000000     0.0282052  
C350     C      0.193730000000     0.693190000000     0.117830000000    -0.0678732  
C351     C      0.208270000000     0.707520000000     0.132490000000     0.0179062  
C352     C      0.229950000000     0.728030000000     0.128420000000    -0.0989963  
C353     C      0.236770000000     0.733730000000     0.109300000000     0.0198576  
C354     C      0.222230000000     0.719370000000     0.094660000000    -0.0682312  
C355     C      0.228480000000     0.729620000000     0.258280000000    -0.0984518  
C356     C      0.206670000000     0.709240000000     0.254230000000     0.0186078  
C357     C      0.192400000000     0.694650000000     0.268880000000    -0.0676422  
C358     C      0.199560000000     0.700050000000     0.287960000000     0.028413   
C359     C      0.221260000000     0.720480000000     0.292040000000    -0.0679174  
C360     C      0.235530000000     0.735100000000     0.277400000000     0.0203654  
C361     C      0.184550000000     0.684350000000     0.303540000000     0.000186894
C362     C      0.154480000000     0.679510000000     0.302770000000    -0.0376545  
C363     C      0.140380000000     0.664710000000     0.317400000000    -0.0374889  
C364     C      0.156020000000     0.654390000000     0.333150000000    -0.000128675
C365     C      0.186090000000     0.659240000000     0.333920000000    -0.0374319  
C366     C      0.200200000000     0.674050000000     0.319280000000    -0.0377923  
C367     C      0.141020000000     0.638670000000     0.348730000000     0.028971   
C368     C      0.119290000000     0.618280000000     0.344630000000    -0.0682494  
C369     C      0.105040000000     0.603630000000     0.359270000000     0.0205759  
C370     C      0.112130000000     0.609030000000     0.378380000000    -0.0979373  
C371     C      0.133960000000     0.629390000000     0.382450000000     0.0203706  
C372     C      0.148220000000     0.644010000000     0.367800000000    -0.0684329  
C373     C      0.110820000000     0.978050000000     0.008250000000    -0.0981185  
C374     C      0.103990000000     0.983730000000     0.027370000000     0.0202071  
C375     C      0.118510000000     0.969360000000     0.042010000000    -0.0683422  
C376     C      0.140230000000     0.948980000000     0.037910000000     0.0286455  
C377     C      0.147030000000     0.943200000000     0.018830000000    -0.0683721  
C378     C      0.132510000000     0.957540000000     0.004170000000     0.019906   
C379     C      0.155800000000     0.933830000000     0.053500000000    -3.09619e-05
C380     C      0.140690000000     0.923850000000     0.069560000000    -0.0377873  
C381     C      0.155330000000     0.909670000000     0.084220000000    -0.0376002  
C382     C      0.185430000000     0.905130000000     0.083180000000    -0.000307722
C383     C      0.200550000000     0.915120000000     0.067140000000    -0.0375067  
C384     C      0.185900000000     0.929310000000     0.052460000000    -0.0377308  
C385     C      0.200980000000     0.889960000000     0.098770000000     0.0287305  
C386     C      0.194170000000     0.895680000000     0.117850000000    -0.0690159  
C387     C      0.208640000000     0.881270000000     0.132500000000     0.0191437  
C388     C      0.230310000000     0.860740000000     0.128420000000    -0.100371   
C389     C      0.237170000000     0.855110000000     0.109290000000     0.0205497  
C390     C      0.222700000000     0.869550000000     0.094660000000    -0.068733   
C391     C      0.360440000000     0.727690000000     0.128430000000    -0.100547   
C392     C      0.353550000000     0.733280000000     0.109300000000     0.0206995  
C393     C      0.368020000000     0.718830000000     0.094670000000    -0.068953   
C394     C      0.389750000000     0.698460000000     0.098780000000     0.0288243  
C395     C      0.396590000000     0.692760000000     0.117870000000    -0.0691741  
C396     C      0.382110000000     0.707180000000     0.132510000000     0.0193408  
C397     C      0.405310000000     0.683270000000     0.083210000000    -0.000370667
C398     C      0.390190000000     0.673260000000     0.067170000000    -0.0375297  
C399     C      0.404830000000     0.659070000000     0.052500000000    -0.037749   
C400     C      0.434940000000     0.654560000000     0.053530000000    -6.69409e-05
C401     C      0.450050000000     0.664570000000     0.069570000000    -0.0377512  
C402     C      0.435420000000     0.678770000000     0.084240000000    -0.0377078  
C403     C      0.450500000000     0.639430000000     0.037940000000     0.0284088  
C404     C      0.443680000000     0.645190000000     0.018860000000    -0.0682662  
C405     C      0.458220000000     0.630850000000     0.004190000000     0.0195846  
C406     C      0.479930000000     0.610380000000     0.008260000000    -0.097771   
C407     C      0.486780000000     0.604700000000     0.027380000000     0.0196678  
C408     C      0.472250000000     0.619060000000     0.042030000000    -0.068113   
C409     C      0.362290000000     0.858890000000     0.258270000000    -0.0982016  
C410     C      0.355230000000     0.853450000000     0.277380000000     0.0202796  
C411     C      0.369500000000     0.868070000000     0.292020000000    -0.0681665  
C412     C      0.391210000000     0.888480000000     0.287930000000     0.0284363  
C413     C      0.398390000000     0.893860000000     0.268860000000    -0.0675582  
C414     C      0.384110000000     0.879270000000     0.254200000000     0.0183856  
C415     C      0.406210000000     0.904190000000     0.303500000000     8.79324e-05
C416     C      0.390560000000     0.914540000000     0.319240000000    -0.037841   
C417     C      0.404660000000     0.929350000000     0.333870000000    -0.037369   
C418     C      0.434740000000     0.934170000000     0.333110000000    -0.000439004
C419     C      0.450390000000     0.923820000000     0.317380000000    -0.0373473  
C420     C      0.436290000000     0.909020000000     0.302740000000    -0.0377423  
C421     C      0.449750000000     0.949880000000     0.348690000000     0.0297791  
C422     C      0.442520000000     0.944550000000     0.367760000000    -0.0690539  
C423     C      0.456780000000     0.959160000000     0.382420000000     0.0213743  
C424     C      0.478640000000     0.979490000000     0.378350000000    -0.099627   
C425     C      0.485750000000     0.984890000000     0.359240000000     0.0244006  
C426     C      0.471490000000     0.970250000000     0.344600000000    -0.0697541  
C427     C      0.478460000000     0.608900000000     0.378400000000    -0.0981255  
C428     C      0.485630000000     0.603570000000     0.359290000000     0.0202229  
C429     C      0.471340000000     0.618190000000     0.344650000000    -0.0680684  
C430     C      0.449530000000     0.638500000000     0.348750000000     0.0284255  
C431     C      0.442270000000     0.643770000000     0.367820000000    -0.0675819  
C432     C      0.456540000000     0.629160000000     0.382470000000     0.0183265  
C433     C      0.434500000000     0.654210000000     0.333170000000     4.03543e-05
C434     C      0.426330000000     0.639690000000     0.316470000000    -0.0376584  
C435     C      0.412280000000     0.654480000000     0.301820000000    -0.037511   
C436     C      0.406070000000     0.684150000000     0.303510000000    -0.000184074
C437     C      0.414240000000     0.698680000000     0.320220000000    -0.0376145  
C438     C      0.428290000000     0.683880000000     0.334880000000    -0.0376631  
C439     C      0.391040000000     0.699860000000     0.287950000000     0.0288302  
C440     C      0.398360000000     0.694640000000     0.268870000000    -0.0684038  
C441     C      0.384110000000     0.709270000000     0.254220000000     0.0203311  
C442     C      0.362140000000     0.729480000000     0.258290000000    -0.0978094  
C443     C      0.354930000000     0.734770000000     0.277410000000     0.0203509  
C444     C      0.369220000000     0.720140000000     0.292040000000    -0.0681146  
C445     C      0.112300000000     0.979630000000     0.378380000000    -0.099899   
C446     C      0.105190000000     0.985060000000     0.359260000000     0.024004   
C447     C      0.119470000000     0.970430000000     0.344620000000    -0.0694811  
C448     C      0.141220000000     0.950070000000     0.348700000000     0.0292823  
C449     C      0.148440000000     0.944720000000     0.367780000000    -0.0682684  
C450     C      0.134150000000     0.959300000000     0.382440000000     0.019461   
C451     C      0.156230000000     0.934360000000     0.333130000000    -0.000120703
C452     C      0.140560000000     0.923980000000     0.317410000000    -0.0376388  
C453     C      0.154660000000     0.909160000000     0.302780000000    -0.0374832  
C454     C      0.184750000000     0.904380000000     0.303510000000    -0.000104547
C455     C      0.200410000000     0.914780000000     0.319230000000    -0.0374565  
C456     C      0.186310000000     0.929580000000     0.333870000000    -0.0374698  
C457     C      0.199750000000     0.888660000000     0.287950000000     0.0289263  
C458     C      0.192490000000     0.893940000000     0.268870000000    -0.0683863  
C459     C      0.206750000000     0.879310000000     0.254220000000     0.0204267  
C460     C      0.228640000000     0.859020000000     0.258280000000    -0.0980064  
C461     C      0.235780000000     0.853670000000     0.277400000000     0.0206063  
C462     C      0.221530000000     0.868310000000     0.292030000000    -0.068261   
C463     C      0.480320000000     0.977670000000     0.008220000000    -0.0998918  
C464     C      0.458690000000     0.957120000000     0.004130000000     0.0214117  
C465     C      0.444210000000     0.942700000000     0.018780000000    -0.0696186  
C466     C      0.451000000000     0.948440000000     0.037870000000     0.0291642  
C467     C      0.472690000000     0.968870000000     0.041980000000    -0.0687643  
C468     C      0.487170000000     0.983320000000     0.027350000000     0.0209864  
C469     C      0.435450000000     0.933260000000     0.053440000000    -0.000344346
C470     C      0.405350000000     0.928690000000     0.052390000000    -0.0375035  
C471     C      0.390700000000     0.914510000000     0.067060000000    -0.0377137  
C472     C      0.405800000000     0.904560000000     0.083130000000    -3.32586e-05
C473     C      0.435900000000     0.909130000000     0.084170000000    -0.0376579  
C474     C      0.450550000000     0.923310000000     0.069510000000    -0.0375286  
C475     C      0.390230000000     0.889440000000     0.098710000000     0.0282825  
C476     C      0.368520000000     0.869030000000     0.094630000000    -0.0681874  
C477     C      0.354000000000     0.854670000000     0.109270000000     0.019919   
C478     C      0.360800000000     0.860390000000     0.128400000000    -0.0989855  
C479     C      0.382470000000     0.880920000000     0.132460000000     0.0180285  
C480     C      0.397010000000     0.895250000000     0.117800000000    -0.0678623  
H257     H      0.045340000000     0.981420000000     0.416300000000     0.209299   
H258     H      0.109180000000     0.544220000000     0.471680000000     0.204113   
H259     H      0.045430000000     0.607070000000     0.416330000000     0.209629   
H260     H      0.481580000000     0.544230000000     0.471680000000     0.204079   
H261     H      0.148940000000     0.514890000000     0.445260000000     0.125243   
H262     H      0.153130000000     0.576130000000     0.445140000000     0.185511   
H263     H      0.072640000000     0.643200000000     0.454300000000     0.147901   
H264     H      0.008140000000     0.648110000000     0.430930000000     0.198658   
H265     H      0.441820000000     0.573590000000     0.445260000000     0.125501   
H266     H      0.437630000000     0.512340000000     0.445140000000     0.185348   
H267     H      0.018110000000     0.945270000000     0.454260000000     0.147873   
H268     H      0.082630000000     0.940380000000     0.430890000000     0.199308   
H269     H      0.012460000000     0.648040000000     0.454520000000     0.202291   
H270     H      0.442260000000     0.976550000000     0.443000000000     0.202183   
H271     H      0.078300000000     0.940430000000     0.454480000000     0.20265    
H272     H      0.148500000000     0.611920000000     0.443040000000     0.202528   
H273     H      0.295320000000     0.857060000000     0.220340000000     0.20962    
H274     H      0.359180000000     0.794250000000     0.164980000000     0.204065   
H275     H      0.295450000000     0.731420000000     0.220350000000     0.209802   
H276     H      0.231580000000     0.794210000000     0.164980000000     0.203847   
H277     H      0.398940000000     0.823620000000     0.191370000000     0.125367   
H278     H      0.403140000000     0.762380000000     0.191510000000     0.185249   
H279     H      0.322670000000     0.695270000000     0.182400000000     0.148172   
H280     H      0.258170000000     0.690370000000     0.205770000000     0.199462   
H281     H      0.191820000000     0.764850000000     0.191400000000     0.125299   
H282     H      0.187620000000     0.826090000000     0.191520000000     0.185353   
H283     H      0.268090000000     0.893190000000     0.182370000000     0.148227   
H284     H      0.332590000000     0.898110000000     0.205730000000     0.19989    
H285     H      0.262490000000     0.690420000000     0.182180000000     0.202828   
H286     H      0.192230000000     0.861880000000     0.193650000000     0.202578   
H287     H      0.328270000000     0.898040000000     0.182150000000     0.203196   
H288     H      0.398530000000     0.726590000000     0.193650000000     0.202465   
H289     H      0.087090000000     0.589420000000     0.031120000000     0.0372731  
H290     H      0.112530000000     0.614370000000     0.056560000000     0.0458756  
H291     H      0.162900000000     0.661580000000     0.015170000000     0.045856   
H292     H      0.137940000000     0.636300000000     0.489640000000     0.0324607  
H293     H      0.116940000000     0.662330000000     0.070650000000     0.0374521  
H294     H      0.142500000000     0.687100000000     0.096240000000     0.0376641  
H295     H      0.223320000000     0.676630000000     0.065990000000     0.0376404  
H296     H      0.197770000000     0.651860000000     0.040410000000     0.0373547  
H297     H      0.177380000000     0.677310000000     0.121470000000     0.0459158  
H298     H      0.202450000000     0.702460000000     0.147020000000     0.0369251  
H299     H      0.253270000000     0.749400000000     0.105560000000     0.0372496  
H300     H      0.227740000000     0.724580000000     0.080100000000     0.0457667  
H301     H      0.200670000000     0.704340000000     0.239710000000     0.0371336  
H302     H      0.176020000000     0.678790000000     0.265250000000     0.0461402  
H303     H      0.227030000000     0.725430000000     0.306600000000     0.0460663  
H304     H      0.252120000000     0.750690000000     0.281130000000     0.037611   
H305     H      0.141730000000     0.687560000000     0.290980000000     0.0382464  
H306     H      0.117130000000     0.661740000000     0.316520000000     0.0378709  
H307     H      0.198850000000     0.651190000000     0.345700000000     0.0379095  
H308     H      0.223450000000     0.677020000000     0.320170000000     0.0379668  
H309     H      0.113490000000     0.613370000000     0.330080000000     0.0460831  
H310     H      0.088430000000     0.588060000000     0.355530000000     0.0374794  
H311     H      0.140010000000     0.634210000000     0.396970000000     0.0348319  
H312     H      0.164620000000     0.659840000000     0.371450000000     0.0459016  
H313     H      0.087470000000     0.999400000000     0.031100000000     0.0380407  
H314     H      0.112990000000     0.974570000000     0.056560000000     0.0460023  
H315     H      0.163400000000     0.927330000000     0.015200000000     0.0464823  
H316     H      0.138340000000     0.952490000000     0.489650000000     0.0370565  
H317     H      0.117430000000     0.926610000000     0.070670000000     0.0375242  
H318     H      0.142970000000     0.901840000000     0.096250000000     0.0371824  
H319     H      0.223810000000     0.912360000000     0.066030000000     0.0377946  
H320     H      0.198260000000     0.937120000000     0.040430000000     0.0380564  
H321     H      0.177810000000     0.911550000000     0.121500000000     0.0454656  
H322     H      0.202780000000     0.886270000000     0.147020000000     0.0325704  
H323     H      0.253660000000     0.839440000000     0.105550000000     0.0371093  
H324     H      0.228230000000     0.864390000000     0.080100000000     0.0459519  
H325     H      0.337040000000     0.748950000000     0.105550000000     0.0370489  
H326     H      0.362470000000     0.723970000000     0.080120000000     0.0460283  
H327     H      0.412960000000     0.676900000000     0.121520000000     0.0454069  
H328     H      0.387990000000     0.702200000000     0.147050000000     0.0324517  
H329     H      0.366920000000     0.676000000000     0.066060000000     0.0376546  
H330     H      0.392470000000     0.651220000000     0.040470000000     0.0378495  
H331     H      0.473320000000     0.661830000000     0.070680000000     0.0375767  
H332     H      0.447770000000     0.686610000000     0.096260000000     0.0372836  
H333     H      0.427300000000     0.661040000000     0.015220000000     0.0464097  
H334     H      0.452380000000     0.635900000000     0.489680000000     0.0369936  
H335     H      0.003310000000     0.589050000000     0.031120000000     0.0358215  
H336     H      0.477790000000     0.613870000000     0.056590000000     0.045727   
H337     H      0.338630000000     0.837870000000     0.281110000000     0.037498   
H338     H      0.363720000000     0.863150000000     0.306570000000     0.0458725  
H339     H      0.414770000000     0.909710000000     0.265210000000     0.0462109  
H340     H      0.390120000000     0.884140000000     0.239680000000     0.0372882  
H341     H      0.367310000000     0.911580000000     0.320110000000     0.037749   
H342     H      0.391910000000     0.937410000000     0.345650000000     0.0378471  
H343     H      0.473650000000     0.926780000000     0.316500000000     0.0377543  
H344     H      0.449050000000     0.900950000000     0.290960000000     0.0382416  
H345     H      0.426110000000     0.928730000000     0.371400000000     0.0460438  
H346     H      0.450710000000     0.954340000000     0.396930000000     0.0347083  
H347     H      0.002370000000     0.500440000000     0.355510000000     0.0356462  
H348     H      0.477310000000     0.975150000000     0.330050000000     0.046725   
H349     H      0.002430000000     0.588210000000     0.355560000000     0.0357549  
H350     H      0.477690000000     0.613890000000     0.330120000000     0.0459237  
H351     H      0.425300000000     0.659000000000     0.371450000000     0.0461964  
H352     H      0.450330000000     0.633810000000     0.396980000000     0.0373275  
H353     H      0.430400000000     0.616740000000     0.314830000000     0.0381424  
H354     H      0.405860000000     0.642550000000     0.289250000000     0.037921   
H355     H      0.410170000000     0.721620000000     0.321870000000     0.0380806  
H356     H      0.434710000000     0.695810000000     0.347440000000     0.0377393  
H357     H      0.415350000000     0.679430000000     0.265260000000     0.0458242  
H358     H      0.390360000000     0.704660000000     0.239710000000     0.0348022  
H359     H      0.338110000000     0.750100000000     0.281130000000     0.0375569  
H360     H      0.362820000000     0.724420000000     0.306570000000     0.0459812  
H361     H      0.088570000000     0.500600000000     0.355530000000     0.0374979  
H362     H      0.113660000000     0.975340000000     0.330070000000     0.0467045  
H363     H      0.164840000000     0.928900000000     0.371410000000     0.0464013  
H364     H      0.140200000000     0.954470000000     0.396950000000     0.037104   
H365     H      0.117300000000     0.926900000000     0.316550000000     0.0375817  
H366     H      0.141900000000     0.901060000000     0.291010000000     0.0376992  
H367     H      0.223670000000     0.911860000000     0.320100000000     0.0378654  
H368     H      0.199070000000     0.937680000000     0.345640000000     0.0383708  
H369     H      0.176050000000     0.909730000000     0.265230000000     0.0459423  
H370     H      0.200660000000     0.884100000000     0.239710000000     0.0348402  
H371     H      0.252430000000     0.838150000000     0.281140000000     0.0374975  
H372     H      0.227370000000     0.863460000000     0.306580000000     0.0460646  
H373     H      0.452850000000     0.952100000000     0.489610000000     0.0325723  
H374     H      0.427880000000     0.926800000000     0.015120000000     0.0459294  
H375     H      0.478190000000     0.974050000000     0.056540000000     0.0462418  
H376     H      0.003630000000     0.999010000000     0.031100000000     0.0361721  
H377     H      0.393000000000     0.936490000000     0.040350000000     0.0375501  
H378     H      0.367440000000     0.911730000000     0.065940000000     0.0377447  
H379     H      0.448250000000     0.901330000000     0.096220000000     0.0377702  
H380     H      0.473800000000     0.926090000000     0.070630000000     0.0377436  
H381     H      0.363020000000     0.863790000000     0.080070000000     0.0457941  
H382     H      0.337500000000     0.838980000000     0.105540000000     0.0372789  
H383     H      0.388280000000     0.886000000000     0.146990000000     0.037047   
H384     H      0.413350000000     0.911130000000     0.121430000000     0.046173   
O129     O      0.488210000000     0.987110000000     0.475370000000    -0.354742   
O130     O      0.014710000000     0.512280000000     0.497430000000    -0.346426   
O131     O      0.104300000000     0.988900000000     0.411240000000    -0.348815   
O132     O      0.076710000000     0.512970000000     0.389220000000    -0.343849   
O133     O      0.102890000000     0.987380000000     0.475380000000    -0.351037   
O134     O      0.076180000000     0.512380000000     0.497420000000    -0.344385   
O135     O      0.486630000000     0.988750000000     0.411220000000    -0.344351   
O136     O      0.014090000000     0.512960000000     0.389210000000    -0.345481   
O137     O      0.008030000000     0.950250000000     0.442280000000    -0.340033   
O138     O      0.450320000000     0.995800000000     0.443910000000    -0.509544   
O139     O      0.081940000000     0.950770000000     0.442790000000    -0.512615   
O140     O      0.140820000000     0.995180000000     0.443780000000    -0.324644   
O141     O      0.045340000000     0.997980000000     0.462260000000    -0.465528   
O142     O      0.045340000000     0.998160000000     0.424520000000    -0.606479   
O143     O      0.486460000000     0.599610000000     0.411260000000    -0.349264   
O144     O      0.014050000000     0.575560000000     0.389230000000    -0.345516   
O145     O      0.102550000000     0.601330000000     0.475400000000    -0.355491   
O146     O      0.076050000000     0.576150000000     0.497450000000    -0.344921   
O147     O      0.104130000000     0.599760000000     0.411240000000    -0.344734   
O148     O      0.076660000000     0.575560000000     0.389220000000    -0.343826   
O149     O      0.487870000000     0.601060000000     0.475400000000    -0.351742   
O150     O      0.014570000000     0.576050000000     0.497430000000    -0.34597    
O151     O      0.008820000000     0.637700000000     0.442830000000    -0.513122   
O152     O      0.449940000000     0.593290000000     0.443800000000    -0.327734   
O153     O      0.082730000000     0.638210000000     0.442320000000    -0.34043    
O154     O      0.140440000000     0.592660000000     0.443930000000    -0.513186   
O155     O      0.045420000000     0.590330000000     0.424540000000    -0.609221   
O156     O      0.045430000000     0.590480000000     0.462270000000    -0.468032   
O157     O      0.498100000000     0.544300000000     0.422970000000    -0.47408    
O158     O      0.092410000000     0.544190000000     0.463460000000    -0.622958   
O159     O      0.498340000000     0.544260000000     0.463450000000    -0.62297    
O160     O      0.092660000000     0.544190000000     0.422970000000    -0.474082   
O161     O      0.238190000000     0.851320000000     0.161270000000    -0.35556    
O162     O      0.264700000000     0.826150000000     0.139220000000    -0.345026   
O163     O      0.354300000000     0.849620000000     0.225400000000    -0.34939    
O164     O      0.326710000000     0.825560000000     0.247420000000    -0.344043   
O165     O      0.352870000000     0.851080000000     0.161260000000    -0.351446   
O166     O      0.326170000000     0.826060000000     0.139220000000    -0.344229   
O167     O      0.236630000000     0.849730000000     0.225420000000    -0.344866   
O168     O      0.264100000000     0.825550000000     0.247440000000    -0.343793   
O169     O      0.257990000000     0.888210000000     0.194340000000    -0.340357   
O170     O      0.200300000000     0.842630000000     0.192740000000    -0.51312    
O171     O      0.331910000000     0.887710000000     0.193840000000    -0.514091   
O172     O      0.390810000000     0.843320000000     0.192850000000    -0.327596   
O173     O      0.295320000000     0.840480000000     0.174390000000    -0.468047   
O174     O      0.295330000000     0.840320000000     0.212120000000    -0.609182   
O175     O      0.236470000000     0.738880000000     0.225420000000    -0.349359   
O176     O      0.264060000000     0.762950000000     0.247430000000    -0.34397    
O177     O      0.352560000000     0.737130000000     0.161280000000    -0.355519   
O178     O      0.326050000000     0.762290000000     0.139220000000    -0.344846   
O179     O      0.354140000000     0.738750000000     0.225430000000    -0.34476    
O180     O      0.326680000000     0.762950000000     0.247450000000    -0.343985   
O181     O      0.237890000000     0.737370000000     0.161280000000    -0.351578   
O182     O      0.264580000000     0.762380000000     0.139240000000    -0.344375   
O183     O      0.258850000000     0.700760000000     0.193870000000    -0.513535   
O184     O      0.199950000000     0.745150000000     0.192880000000    -0.327598   
O185     O      0.332760000000     0.700260000000     0.194370000000    -0.340525   
O186     O      0.390450000000     0.745840000000     0.192740000000    -0.512994   
O187     O      0.295440000000     0.748150000000     0.212130000000    -0.609286   
O188     O      0.295440000000     0.747970000000     0.174410000000    -0.46804    
O189     O      0.248100000000     0.794170000000     0.213690000000    -0.474006   
O190     O      0.342410000000     0.794280000000     0.173200000000    -0.622932   
O191     O      0.248350000000     0.794180000000     0.173210000000    -0.622898   
O192     O      0.342660000000     0.794310000000     0.213690000000    -0.474055   
Zr25     Zr     0.002100000000     0.502610000000     0.443290000000     1.28721    
Zr26     Zr     0.088580000000     0.502520000000     0.443310000000     1.29115    
Zr27     Zr     0.002180000000     0.585960000000     0.443330000000     1.28768    
Zr28     Zr     0.088660000000     0.585860000000     0.443310000000     1.29069    
Zr29     Zr     0.045380000000     0.544220000000     0.478950000000     1.26488    
Zr30     Zr     0.045380000000     0.544260000000     0.407720000000     1.26157    
Zr31     Zr     0.252090000000     0.835850000000     0.193350000000     1.29084    
Zr32     Zr     0.338570000000     0.835980000000     0.193340000000     1.29135    
Zr33     Zr     0.252200000000     0.752500000000     0.193350000000     1.29131    
Zr34     Zr     0.338680000000     0.752620000000     0.193350000000     1.2909     
Zr35     Zr     0.295370000000     0.794230000000     0.157710000000     1.26535    
Zr36     Zr     0.295390000000     0.794240000000     0.228940000000     1.2622     
C481     C      0.495470000000     0.993280000000     0.992680000000     0.335467   
C482     C      0.096830000000     0.994870000000     0.893940000000     0.336987   
C483     C      0.095560000000     0.993520000000     0.992680000000     0.333531   
C484     C      0.494060000000     0.994780000000     0.893920000000     0.338613   
C485     C      0.493930000000     0.593650000000     0.893960000000     0.333945   
C486     C      0.095280000000     0.595150000000     0.992700000000     0.33297    
C487     C      0.096700000000     0.593740000000     0.893940000000     0.335269   
C488     C      0.495180000000     0.594910000000     0.992700000000     0.331099   
C489     C      0.245460000000     0.845140000000     0.643970000000     0.334296   
C490     C      0.346820000000     0.843650000000     0.742700000000     0.334232   
C491     C      0.345550000000     0.844930000000     0.643950000000     0.33236    
C492     C      0.244050000000     0.843720000000     0.742730000000     0.335674   
C493     C      0.243940000000     0.744850000000     0.742720000000     0.334294   
C494     C      0.345290000000     0.743300000000     0.643970000000     0.33407    
C495     C      0.346710000000     0.744780000000     0.742730000000     0.335519   
C496     C      0.245200000000     0.743510000000     0.643970000000     0.332477   
C497     C      0.110430000000     0.610740000000     0.508250000000    -0.100563   
C498     C      0.103580000000     0.605110000000     0.527380000000     0.0206074  
C499     C      0.118050000000     0.619550000000     0.542010000000    -0.0689933  
C500     C      0.139750000000     0.639960000000     0.537910000000     0.0287562  
C501     C      0.146560000000     0.645690000000     0.518820000000    -0.0691485  
C502     C      0.132080000000     0.631290000000     0.504170000000     0.0191946  
C503     C      0.155310000000     0.655130000000     0.553480000000    -0.000490276
C504     C      0.140200000000     0.665100000000     0.569540000000    -0.0375894  
C505     C      0.154850000000     0.679290000000     0.584210000000    -0.0379219  
C506     C      0.184950000000     0.683830000000     0.583160000000    -3.28974e-05
C507     C      0.200060000000     0.673860000000     0.567100000000    -0.0379125  
C508     C      0.185410000000     0.659680000000     0.552440000000    -0.0376019  
C509     C      0.200520000000     0.698970000000     0.598750000000     0.0281475  
C510     C      0.193730000000     0.693190000000     0.617840000000    -0.0678945  
C511     C      0.208270000000     0.707520000000     0.632490000000     0.0179472  
C512     C      0.229950000000     0.728030000000     0.628420000000    -0.0990132  
C513     C      0.236770000000     0.733730000000     0.609300000000     0.019842   
C514     C      0.222230000000     0.719370000000     0.594660000000    -0.0682277  
C515     C      0.228480000000     0.729620000000     0.758280000000    -0.0984268  
C516     C      0.206670000000     0.709240000000     0.754230000000     0.0185601  
C517     C      0.192400000000     0.694650000000     0.768890000000    -0.067605   
C518     C      0.199560000000     0.700050000000     0.787960000000     0.0284287  
C519     C      0.221260000000     0.720480000000     0.792040000000    -0.0679192  
C520     C      0.235530000000     0.735100000000     0.777400000000     0.0203577  
C521     C      0.184550000000     0.684350000000     0.803540000000     0.000205449
C522     C      0.154480000000     0.679510000000     0.802770000000    -0.0377287  
C523     C      0.140380000000     0.664710000000     0.817400000000    -0.0374415  
C524     C      0.156020000000     0.654390000000     0.833150000000    -0.000190338
C525     C      0.186090000000     0.659240000000     0.833920000000    -0.037337   
C526     C      0.200200000000     0.674050000000     0.819290000000    -0.0378404  
C527     C      0.141020000000     0.638670000000     0.848730000000     0.0289871  
C528     C      0.119290000000     0.618280000000     0.844630000000    -0.0682631  
C529     C      0.105040000000     0.603630000000     0.859270000000     0.0205814  
C530     C      0.112130000000     0.609030000000     0.878380000000    -0.0979581  
C531     C      0.133960000000     0.629390000000     0.882450000000     0.0203586  
C532     C      0.148220000000     0.644010000000     0.867800000000    -0.0684645  
C533     C      0.110820000000     0.978050000000     0.508250000000    -0.0991641  
C534     C      0.103990000000     0.983730000000     0.527370000000     0.0203026  
C535     C      0.118510000000     0.969360000000     0.542010000000    -0.0683421  
C536     C      0.140230000000     0.948980000000     0.537920000000     0.0282997  
C537     C      0.147030000000     0.943200000000     0.518830000000    -0.0677636  
C538     C      0.132510000000     0.957540000000     0.504170000000     0.018049   
C539     C      0.155800000000     0.933830000000     0.553510000000     5.37924e-05
C540     C      0.140690000000     0.923850000000     0.569560000000    -0.0378765  
C541     C      0.155330000000     0.909670000000     0.584220000000    -0.0375963  
C542     C      0.185430000000     0.905130000000     0.583180000000    -0.00033987 
C543     C      0.200550000000     0.915120000000     0.567140000000    -0.0375248  
C544     C      0.185900000000     0.929310000000     0.552460000000    -0.0378311  
C545     C      0.200980000000     0.889960000000     0.598760000000     0.0286799  
C546     C      0.194170000000     0.895680000000     0.617850000000    -0.0689927  
C547     C      0.208640000000     0.881270000000     0.632500000000     0.0191662  
C548     C      0.230310000000     0.860740000000     0.628420000000    -0.100385   
C549     C      0.237170000000     0.855110000000     0.609290000000     0.0205337  
C550     C      0.222700000000     0.869550000000     0.594660000000    -0.0687301  
C551     C      0.360440000000     0.727690000000     0.628430000000    -0.100567   
C552     C      0.353550000000     0.733280000000     0.609310000000     0.0207127  
C553     C      0.368020000000     0.718830000000     0.594670000000    -0.0689715  
C554     C      0.389750000000     0.698460000000     0.598780000000     0.0288144  
C555     C      0.396590000000     0.692760000000     0.617870000000    -0.0691799  
C556     C      0.382110000000     0.707180000000     0.632510000000     0.0193454  
C557     C      0.405310000000     0.683270000000     0.583210000000    -0.000410536
C558     C      0.390190000000     0.673260000000     0.567170000000    -0.0375327  
C559     C      0.404830000000     0.659070000000     0.552500000000    -0.0378871  
C560     C      0.434940000000     0.654560000000     0.553530000000    -2.9275e-05 
C561     C      0.450050000000     0.664570000000     0.569570000000    -0.0378156  
C562     C      0.435420000000     0.678770000000     0.584240000000    -0.0377098  
C563     C      0.450500000000     0.639430000000     0.537940000000     0.0281683  
C564     C      0.443680000000     0.645190000000     0.518850000000    -0.0678299  
C565     C      0.458220000000     0.630850000000     0.504200000000     0.0178611  
C566     C      0.479930000000     0.610380000000     0.508270000000    -0.0988484  
C567     C      0.486780000000     0.604700000000     0.527380000000     0.0198674  
C568     C      0.472250000000     0.619060000000     0.542030000000    -0.068275   
C569     C      0.362290000000     0.858890000000     0.758270000000    -0.0981743  
C570     C      0.355230000000     0.853450000000     0.777380000000     0.0202705  
C571     C      0.369500000000     0.868070000000     0.792020000000    -0.0681571  
C572     C      0.391210000000     0.888480000000     0.787930000000     0.0284341  
C573     C      0.398390000000     0.893860000000     0.768860000000    -0.0675442  
C574     C      0.384110000000     0.879270000000     0.754200000000     0.0183822  
C575     C      0.406210000000     0.904190000000     0.803500000000     9.32835e-05
C576     C      0.390560000000     0.914540000000     0.819240000000    -0.0378448  
C577     C      0.404660000000     0.929350000000     0.833870000000    -0.0373763  
C578     C      0.434740000000     0.934170000000     0.833110000000    -0.000450217
C579     C      0.450390000000     0.923820000000     0.817380000000    -0.0373434  
C580     C      0.436290000000     0.909020000000     0.802740000000    -0.0377447  
C581     C      0.449750000000     0.949880000000     0.848690000000     0.0297864  
C582     C      0.442520000000     0.944550000000     0.867760000000    -0.0690983  
C583     C      0.456780000000     0.959160000000     0.882420000000     0.0214059  
C584     C      0.478640000000     0.979490000000     0.878350000000    -0.0996674  
C585     C      0.485750000000     0.984890000000     0.859240000000     0.0244221  
C586     C      0.471490000000     0.970250000000     0.844600000000    -0.0697699  
C587     C      0.478460000000     0.608900000000     0.878400000000    -0.0981766  
C588     C      0.485630000000     0.603570000000     0.859290000000     0.0202692  
C589     C      0.471340000000     0.618190000000     0.844650000000    -0.0681047  
C590     C      0.449530000000     0.638500000000     0.848750000000     0.0284544  
C591     C      0.442270000000     0.643770000000     0.867820000000    -0.0676395  
C592     C      0.456540000000     0.629160000000     0.882470000000     0.0183689  
C593     C      0.434500000000     0.654210000000     0.833170000000    -6.54999e-06
C594     C      0.426330000000     0.639690000000     0.816470000000    -0.0375902  
C595     C      0.412280000000     0.654480000000     0.801820000000    -0.0376285  
C596     C      0.406070000000     0.684150000000     0.803520000000    -9.32267e-05
C597     C      0.414240000000     0.698680000000     0.820220000000    -0.0376751  
C598     C      0.428290000000     0.683880000000     0.834880000000    -0.0376336  
C599     C      0.391040000000     0.699860000000     0.787950000000     0.028783   
C600     C      0.398360000000     0.694640000000     0.768870000000    -0.0683621  
C601     C      0.384110000000     0.709270000000     0.754220000000     0.0202885  
C602     C      0.362140000000     0.729480000000     0.758290000000    -0.0977931  
C603     C      0.354930000000     0.734770000000     0.777410000000     0.020337   
C604     C      0.369220000000     0.720140000000     0.792040000000    -0.0680893  
C605     C      0.112300000000     0.979630000000     0.878380000000    -0.0999024  
C606     C      0.105190000000     0.985060000000     0.859260000000     0.0240126  
C607     C      0.119470000000     0.970430000000     0.844620000000    -0.0694989  
C608     C      0.141220000000     0.950070000000     0.848700000000     0.0293148  
C609     C      0.148440000000     0.944720000000     0.867770000000    -0.0682688  
C610     C      0.134150000000     0.959300000000     0.882440000000     0.0194012  
C611     C      0.156230000000     0.934360000000     0.833130000000    -0.000147712
C612     C      0.140560000000     0.923980000000     0.817410000000    -0.0376146  
C613     C      0.154660000000     0.909160000000     0.802780000000    -0.0375131  
C614     C      0.184750000000     0.904380000000     0.803520000000    -6.70517e-05
C615     C      0.200410000000     0.914780000000     0.819230000000    -0.0374898  
C616     C      0.186310000000     0.929580000000     0.833870000000    -0.0374574  
C617     C      0.199750000000     0.888660000000     0.787950000000     0.0289386  
C618     C      0.192490000000     0.893940000000     0.768870000000    -0.0684211  
C619     C      0.206750000000     0.879310000000     0.754220000000     0.0205367  
C620     C      0.228640000000     0.859020000000     0.758280000000    -0.0981998  
C621     C      0.235780000000     0.853670000000     0.777400000000     0.0206846  
C622     C      0.221530000000     0.868310000000     0.792030000000    -0.0682913  
C623     C      0.480320000000     0.977670000000     0.508220000000    -0.100827   
C624     C      0.458690000000     0.957120000000     0.504130000000     0.0195264  
C625     C      0.444210000000     0.942700000000     0.518780000000    -0.069082   
C626     C      0.451000000000     0.948440000000     0.537870000000     0.0288796  
C627     C      0.472690000000     0.968870000000     0.541980000000    -0.0687723  
C628     C      0.487170000000     0.983320000000     0.527350000000     0.0210474  
C629     C      0.435450000000     0.933260000000     0.553440000000    -0.000315874
C630     C      0.405350000000     0.928690000000     0.552390000000    -0.0375768  
C631     C      0.390700000000     0.914510000000     0.567060000000    -0.0377457  
C632     C      0.405800000000     0.904560000000     0.583130000000    -5.27395e-05
C633     C      0.435900000000     0.909130000000     0.584170000000    -0.0376684  
C634     C      0.450550000000     0.923310000000     0.569510000000    -0.0375853  
C635     C      0.390230000000     0.889440000000     0.598710000000     0.0282548  
C636     C      0.368520000000     0.869030000000     0.594630000000    -0.0682134  
C637     C      0.354000000000     0.854670000000     0.609280000000     0.0199638  
C638     C      0.360800000000     0.860390000000     0.628390000000    -0.0989229  
C639     C      0.382470000000     0.880920000000     0.632460000000     0.0179497  
C640     C      0.397010000000     0.895250000000     0.617800000000    -0.06781    
H385     H      0.045340000000     0.981420000000     0.916300000000     0.209278   
H386     H      0.109180000000     0.544220000000     0.971680000000     0.203715   
H387     H      0.045430000000     0.607070000000     0.916330000000     0.20961    
H388     H      0.481580000000     0.544230000000     0.971680000000     0.203916   
H389     H      0.148940000000     0.514890000000     0.945260000000     0.125153   
H390     H      0.153130000000     0.576130000000     0.945140000000     0.185363   
H391     H      0.072640000000     0.643200000000     0.954300000000     0.14774    
H392     H      0.008140000000     0.648110000000     0.930930000000     0.198557   
H393     H      0.441820000000     0.573590000000     0.945260000000     0.125395   
H394     H      0.437630000000     0.512340000000     0.945140000000     0.185187   
H395     H      0.018110000000     0.945270000000     0.954260000000     0.147705   
H396     H      0.082630000000     0.940380000000     0.930890000000     0.198952   
H397     H      0.012460000000     0.648040000000     0.954520000000     0.202075   
H398     H      0.442260000000     0.976550000000     0.943000000000     0.202012   
H399     H      0.078300000000     0.940430000000     0.954480000000     0.202685   
H400     H      0.148500000000     0.611920000000     0.943040000000     0.202359   
H401     H      0.295320000000     0.857060000000     0.720340000000     0.209614   
H402     H      0.359180000000     0.794250000000     0.664980000000     0.204063   
H403     H      0.295450000000     0.731420000000     0.720350000000     0.209814   
H404     H      0.231580000000     0.794210000000     0.664990000000     0.204085   
H405     H      0.398940000000     0.823620000000     0.691370000000     0.125342   
H406     H      0.403140000000     0.762380000000     0.691510000000     0.185251   
H407     H      0.322670000000     0.695270000000     0.682390000000     0.147965   
H408     H      0.258170000000     0.690370000000     0.705760000000     0.199816   
H409     H      0.191820000000     0.764850000000     0.691400000000     0.125294   
H410     H      0.187620000000     0.826090000000     0.691520000000     0.185361   
H411     H      0.268090000000     0.893190000000     0.682370000000     0.148229   
H412     H      0.332590000000     0.898110000000     0.705730000000     0.199651   
H413     H      0.262490000000     0.690420000000     0.682180000000     0.20294    
H414     H      0.192230000000     0.861880000000     0.693640000000     0.202608   
H415     H      0.328270000000     0.898040000000     0.682150000000     0.203444   
H416     H      0.398530000000     0.726590000000     0.693660000000     0.202447   
H417     H      0.087090000000     0.589420000000     0.531120000000     0.0369159  
H418     H      0.112530000000     0.614370000000     0.556560000000     0.0458304  
H419     H      0.162900000000     0.661580000000     0.515170000000     0.0453704  
H420     H      0.137940000000     0.636300000000     0.989640000000     0.0309877  
H421     H      0.116940000000     0.662330000000     0.570660000000     0.0374126  
H422     H      0.142500000000     0.687100000000     0.596250000000     0.0376115  
H423     H      0.223320000000     0.676630000000     0.565990000000     0.0375685  
H424     H      0.197770000000     0.651860000000     0.540410000000     0.0372167  
H425     H      0.177380000000     0.677310000000     0.621470000000     0.0459253  
H426     H      0.202450000000     0.702460000000     0.647020000000     0.0369188  
H427     H      0.253270000000     0.749400000000     0.605560000000     0.0372216  
H428     H      0.227740000000     0.724580000000     0.580100000000     0.045691   
H429     H      0.200670000000     0.704340000000     0.739710000000     0.0371508  
H430     H      0.176020000000     0.678790000000     0.765250000000     0.0461341  
H431     H      0.227030000000     0.725430000000     0.806600000000     0.0460466  
H432     H      0.252120000000     0.750690000000     0.781130000000     0.0376071  
H433     H      0.141730000000     0.687560000000     0.790990000000     0.0382911  
H434     H      0.117130000000     0.661740000000     0.816520000000     0.0378582  
H435     H      0.198850000000     0.651190000000     0.845710000000     0.0378313  
H436     H      0.223450000000     0.677020000000     0.820170000000     0.0379611  
H437     H      0.113490000000     0.613370000000     0.830080000000     0.0460942  
H438     H      0.088430000000     0.588060000000     0.855530000000     0.0374813  
H439     H      0.140010000000     0.634210000000     0.896970000000     0.0347646  
H440     H      0.164620000000     0.659840000000     0.871450000000     0.0458465  
H441     H      0.087470000000     0.999400000000     0.531100000000     0.0376825  
H442     H      0.112990000000     0.974570000000     0.556560000000     0.0459527  
H443     H      0.163400000000     0.927330000000     0.515190000000     0.0459929  
H444     H      0.138340000000     0.952490000000     0.989650000000     0.0356097  
H445     H      0.117430000000     0.926610000000     0.570670000000     0.0374958  
H446     H      0.142970000000     0.901840000000     0.596250000000     0.0371583  
H447     H      0.223810000000     0.912360000000     0.566030000000     0.0377183  
H448     H      0.198260000000     0.937120000000     0.540430000000     0.0379353  
H449     H      0.177810000000     0.911550000000     0.621500000000     0.0454595  
H450     H      0.202780000000     0.886270000000     0.647030000000     0.0325626  
H451     H      0.253660000000     0.839440000000     0.605550000000     0.037081   
H452     H      0.228230000000     0.864390000000     0.580100000000     0.0458768  
H453     H      0.337040000000     0.748950000000     0.605560000000     0.0370231  
H454     H      0.362470000000     0.723970000000     0.580120000000     0.0459602  
H455     H      0.412960000000     0.676900000000     0.621520000000     0.0454086  
H456     H      0.387990000000     0.702200000000     0.647050000000     0.032461   
H457     H      0.366920000000     0.676000000000     0.566060000000     0.0375697  
H458     H      0.392470000000     0.651220000000     0.540480000000     0.0377491  
H459     H      0.473320000000     0.661830000000     0.570680000000     0.037543   
H460     H      0.447770000000     0.686610000000     0.596260000000     0.037262   
H461     H      0.427300000000     0.661040000000     0.515220000000     0.0459796  
H462     H      0.452380000000     0.635900000000     0.989680000000     0.0355736  
H463     H      0.003310000000     0.589050000000     0.531120000000     0.035381   
H464     H      0.477790000000     0.613870000000     0.556580000000     0.0457492  
H465     H      0.338630000000     0.837870000000     0.781110000000     0.0374963  
H466     H      0.363720000000     0.863150000000     0.806570000000     0.0458522  
H467     H      0.414770000000     0.909710000000     0.765210000000     0.0462228  
H468     H      0.390120000000     0.884140000000     0.739680000000     0.0373079  
H469     H      0.367310000000     0.911580000000     0.820120000000     0.0377292  
H470     H      0.391910000000     0.937410000000     0.845650000000     0.0378132  
H471     H      0.473650000000     0.926780000000     0.816500000000     0.0377556  
H472     H      0.449050000000     0.900950000000     0.790960000000     0.03825    
H473     H      0.426110000000     0.928730000000     0.871400000000     0.0459932  
H474     H      0.450710000000     0.954340000000     0.896940000000     0.0346317  
H475     H      0.002370000000     0.500440000000     0.855510000000     0.0356448  
H476     H      0.477310000000     0.975150000000     0.830050000000     0.0467385  
H477     H      0.002430000000     0.588210000000     0.855550000000     0.0357337  
H478     H      0.477690000000     0.613890000000     0.830120000000     0.0459398  
H479     H      0.425300000000     0.659000000000     0.871450000000     0.0461489  
H480     H      0.450330000000     0.633810000000     0.896990000000     0.0372452  
H481     H      0.430400000000     0.616740000000     0.814820000000     0.0381225  
H482     H      0.405860000000     0.642550000000     0.789260000000     0.0379774  
H483     H      0.410170000000     0.721620000000     0.821870000000     0.0380743  
H484     H      0.434710000000     0.695810000000     0.847440000000     0.0376928  
H485     H      0.415350000000     0.679430000000     0.765260000000     0.0458249  
H486     H      0.390360000000     0.704660000000     0.739720000000     0.0348166  
H487     H      0.338110000000     0.750100000000     0.781130000000     0.0375546  
H488     H      0.362820000000     0.724420000000     0.806570000000     0.0459547  
H489     H      0.088570000000     0.500600000000     0.855530000000     0.0375015  
H490     H      0.113660000000     0.975340000000     0.830070000000     0.0467186  
H491     H      0.164840000000     0.928900000000     0.871410000000     0.0463308  
H492     H      0.140200000000     0.954470000000     0.896950000000     0.0370461  
H493     H      0.117300000000     0.926900000000     0.816540000000     0.0375739  
H494     H      0.141900000000     0.901060000000     0.791010000000     0.0377115  
H495     H      0.223670000000     0.911860000000     0.820100000000     0.0378556  
H496     H      0.199070000000     0.937680000000     0.845640000000     0.0383336  
H497     H      0.176050000000     0.909730000000     0.765230000000     0.0459637  
H498     H      0.200660000000     0.884100000000     0.739710000000     0.0348303  
H499     H      0.252430000000     0.838150000000     0.781140000000     0.0374666  
H500     H      0.227370000000     0.863460000000     0.806580000000     0.0460523  
H501     H      0.452850000000     0.952100000000     0.989600000000     0.0311249  
H502     H      0.427880000000     0.926800000000     0.515130000000     0.0454805  
H503     H      0.478190000000     0.974050000000     0.556540000000     0.0461983  
H504     H      0.003630000000     0.999010000000     0.531100000000     0.0357876  
H505     H      0.393000000000     0.936490000000     0.540350000000     0.0374179  
H506     H      0.367440000000     0.911730000000     0.565940000000     0.0376718  
H507     H      0.448250000000     0.901330000000     0.596220000000     0.0377533  
H508     H      0.473800000000     0.926090000000     0.570630000000     0.0377102  
H509     H      0.363020000000     0.863790000000     0.580070000000     0.0457268  
H510     H      0.337500000000     0.838980000000     0.605540000000     0.0372304  
H511     H      0.388280000000     0.886000000000     0.646990000000     0.0370611  
H512     H      0.413350000000     0.911130000000     0.621440000000     0.0461506  
O193     O      0.488210000000     0.987110000000     0.975380000000    -0.354802   
O194     O      0.014710000000     0.512280000000     0.997430000000    -0.346744   
O195     O      0.104300000000     0.988900000000     0.911240000000    -0.348854   
O196     O      0.076710000000     0.512970000000     0.889220000000    -0.34386    
O197     O      0.102890000000     0.987380000000     0.975380000000    -0.350983   
O198     O      0.076180000000     0.512380000000     0.997420000000    -0.344632   
O199     O      0.486630000000     0.988750000000     0.911220000000    -0.344372   
O200     O      0.014090000000     0.512960000000     0.889210000000    -0.345479   
O201     O      0.008030000000     0.950250000000     0.942280000000    -0.34012    
O202     O      0.450320000000     0.995800000000     0.943910000000    -0.509545   
O203     O      0.081940000000     0.950770000000     0.942800000000    -0.512609   
O204     O      0.140820000000     0.995180000000     0.943780000000    -0.324804   
O205     O      0.045340000000     0.997980000000     0.962260000000    -0.465545   
O206     O      0.045340000000     0.998160000000     0.924520000000    -0.606456   
O207     O      0.486460000000     0.599610000000     0.911260000000    -0.349291   
O208     O      0.014050000000     0.575560000000     0.889230000000    -0.345514   
O209     O      0.102550000000     0.601330000000     0.975400000000    -0.355461   
O210     O      0.076050000000     0.576150000000     0.997440000000    -0.3453     
O211     O      0.104130000000     0.599760000000     0.911240000000    -0.344773   
O212     O      0.076660000000     0.575560000000     0.889220000000    -0.343838   
O213     O      0.487870000000     0.601060000000     0.975400000000    -0.351681   
O214     O      0.014570000000     0.576050000000     0.997430000000    -0.346207   
O215     O      0.008820000000     0.637700000000     0.942830000000    -0.513104   
O216     O      0.449940000000     0.593290000000     0.943800000000    -0.327887   
O217     O      0.082730000000     0.638210000000     0.942320000000    -0.340534   
O218     O      0.140440000000     0.592660000000     0.943930000000    -0.513189   
O219     O      0.045420000000     0.590330000000     0.924540000000    -0.609202   
O220     O      0.045430000000     0.590480000000     0.962270000000    -0.468033   
O221     O      0.498100000000     0.544300000000     0.922970000000    -0.47406    
O222     O      0.092410000000     0.544190000000     0.963450000000    -0.622726   
O223     O      0.498340000000     0.544260000000     0.963450000000    -0.622882   
O224     O      0.092660000000     0.544190000000     0.922980000000    -0.474174   
O225     O      0.238190000000     0.851320000000     0.661270000000    -0.355566   
O226     O      0.264700000000     0.826150000000     0.639220000000    -0.345034   
O227     O      0.354300000000     0.849620000000     0.725400000000    -0.349252   
O228     O      0.326710000000     0.825560000000     0.747420000000    -0.344019   
O229     O      0.352870000000     0.851080000000     0.661260000000    -0.351557   
O230     O      0.326170000000     0.826060000000     0.639220000000    -0.344241   
O231     O      0.236630000000     0.849730000000     0.725430000000    -0.344793   
O232     O      0.264100000000     0.825550000000     0.747440000000    -0.343867   
O233     O      0.257990000000     0.888210000000     0.694340000000    -0.340354   
O234     O      0.200300000000     0.842630000000     0.692740000000    -0.51316    
O235     O      0.331910000000     0.887710000000     0.693830000000    -0.51408    
O236     O      0.390810000000     0.843320000000     0.692860000000    -0.327558   
O237     O      0.295320000000     0.840480000000     0.674390000000    -0.468107   
O238     O      0.295330000000     0.840320000000     0.712120000000    -0.609108   
O239     O      0.236470000000     0.738880000000     0.725420000000    -0.34935    
O240     O      0.264060000000     0.762950000000     0.747430000000    -0.343965   
O241     O      0.352560000000     0.737130000000     0.661280000000    -0.355383   
O242     O      0.326050000000     0.762290000000     0.639220000000    -0.344831   
O243     O      0.354140000000     0.738750000000     0.725430000000    -0.344876   
O244     O      0.326680000000     0.762950000000     0.747450000000    -0.344001   
O245     O      0.237890000000     0.737370000000     0.661280000000    -0.351572   
O246     O      0.264580000000     0.762380000000     0.639240000000    -0.344371   
O247     O      0.258850000000     0.700760000000     0.693870000000    -0.513953   
O248     O      0.199950000000     0.745150000000     0.692880000000    -0.327587   
O249     O      0.332760000000     0.700260000000     0.694370000000    -0.34031    
O250     O      0.390450000000     0.745840000000     0.692740000000    -0.512951   
O251     O      0.295440000000     0.748150000000     0.712130000000    -0.609381   
O252     O      0.295440000000     0.747970000000     0.674400000000    -0.467871   
O253     O      0.248100000000     0.794170000000     0.713690000000    -0.473998   
O254     O      0.342410000000     0.794280000000     0.673200000000    -0.622931   
O255     O      0.248350000000     0.794180000000     0.673210000000    -0.623137   
O256     O      0.342660000000     0.794310000000     0.713690000000    -0.474044   
Zr37     Zr     0.002100000000     0.502610000000     0.943290000000     1.28704    
Zr38     Zr     0.088580000000     0.502520000000     0.943310000000     1.29126    
Zr39     Zr     0.002180000000     0.585960000000     0.943330000000     1.28759    
Zr40     Zr     0.088660000000     0.585860000000     0.943310000000     1.29081    
Zr41     Zr     0.045380000000     0.544220000000     0.978950000000     1.26451    
Zr42     Zr     0.045380000000     0.544260000000     0.907720000000     1.26157    
Zr43     Zr     0.252090000000     0.835850000000     0.693350000000     1.29078    
Zr44     Zr     0.338570000000     0.835980000000     0.693330000000     1.29136    
Zr45     Zr     0.252200000000     0.752500000000     0.693350000000     1.29129    
Zr46     Zr     0.338680000000     0.752620000000     0.693360000000     1.2908     
Zr47     Zr     0.295370000000     0.794230000000     0.657710000000     1.26543    
Zr48     Zr     0.295390000000     0.794240000000     0.728940000000     1.26222    
C641     C      0.995470000000     0.493280000000     0.492680000000     0.336176   
C642     C      0.596830000000     0.494880000000     0.393940000000     0.334089   
C643     C      0.595570000000     0.493520000000     0.492680000000     0.332397   
C644     C      0.994060000000     0.494780000000     0.393920000000     0.337682   
C645     C      0.993940000000     0.093650000000     0.393960000000     0.336255   
C646     C      0.595280000000     0.095160000000     0.492700000000     0.334241   
C647     C      0.596700000000     0.093740000000     0.393940000000     0.335236   
C648     C      0.995180000000     0.094910000000     0.492700000000     0.3348     
C649     C      0.745450000000     0.345140000000     0.143970000000     0.334401   
C650     C      0.846820000000     0.343650000000     0.242700000000     0.33412    
C651     C      0.845550000000     0.344930000000     0.143950000000     0.332354   
C652     C      0.744050000000     0.343730000000     0.242720000000     0.335241   
C653     C      0.743940000000     0.244860000000     0.242720000000     0.334296   
C654     C      0.845290000000     0.243290000000     0.143970000000     0.334086   
C655     C      0.846710000000     0.244770000000     0.242730000000     0.335396   
C656     C      0.745200000000     0.243510000000     0.143970000000     0.332645   
C657     C      0.610430000000     0.110740000000     0.008250000000    -0.0996299  
C658     C      0.603570000000     0.105110000000     0.027380000000     0.0204652  
C659     C      0.618050000000     0.119540000000     0.042010000000    -0.0689472  
C660     C      0.639750000000     0.139960000000     0.037910000000     0.0289363  
C661     C      0.646560000000     0.145690000000     0.018810000000    -0.0696658  
C662     C      0.632080000000     0.131290000000     0.004170000000     0.0211038  
C663     C      0.655310000000     0.155130000000     0.053480000000    -0.000491044
C664     C      0.640200000000     0.165100000000     0.069540000000    -0.0375476  
C665     C      0.654850000000     0.179280000000     0.084210000000    -0.037893   
C666     C      0.684950000000     0.183830000000     0.083170000000    -8.47532e-05
C667     C      0.700060000000     0.173860000000     0.067100000000    -0.0378648  
C668     C      0.685410000000     0.159680000000     0.052440000000    -0.037626   
C669     C      0.700520000000     0.198970000000     0.098750000000     0.0282395  
C670     C      0.693730000000     0.193180000000     0.117830000000    -0.0679626  
C671     C      0.708270000000     0.207520000000     0.132490000000     0.0179563  
C672     C      0.729950000000     0.228030000000     0.128420000000    -0.0990815  
C673     C      0.736770000000     0.233730000000     0.109300000000     0.0198999  
C674     C      0.722230000000     0.219370000000     0.094660000000    -0.0682656  
C675     C      0.728480000000     0.229620000000     0.258280000000    -0.098344   
C676     C      0.706670000000     0.209240000000     0.254230000000     0.0185466  
C677     C      0.692390000000     0.194650000000     0.268880000000    -0.0676228  
C678     C      0.699570000000     0.200050000000     0.287960000000     0.0283822  
C679     C      0.721260000000     0.220480000000     0.292040000000    -0.0678645  
C680     C      0.735540000000     0.235100000000     0.277400000000     0.0202455  
C681     C      0.684550000000     0.184350000000     0.303540000000     0.000189134
C682     C      0.654480000000     0.179520000000     0.302770000000    -0.0376685  
C683     C      0.640380000000     0.164710000000     0.317400000000    -0.0374877  
C684     C      0.656020000000     0.154390000000     0.333150000000    -0.000130983
C685     C      0.686100000000     0.159230000000     0.333920000000    -0.0375261  
C686     C      0.700200000000     0.174050000000     0.319280000000    -0.0378124  
C687     C      0.641020000000     0.138670000000     0.348730000000     0.0289304  
C688     C      0.619290000000     0.118280000000     0.344630000000    -0.0682315  
C689     C      0.605030000000     0.103630000000     0.359270000000     0.0204491  
C690     C      0.612130000000     0.109040000000     0.378380000000    -0.0979052  
C691     C      0.633960000000     0.129390000000     0.382450000000     0.0203533  
C692     C      0.648220000000     0.144010000000     0.367800000000    -0.068436   
C693     C      0.610820000000     0.478040000000     0.008250000000    -0.0976038  
C694     C      0.603980000000     0.483730000000     0.027370000000     0.0196489  
C695     C      0.618510000000     0.469370000000     0.042010000000    -0.0682346  
C696     C      0.640230000000     0.448980000000     0.037910000000     0.028494   
C697     C      0.647040000000     0.443200000000     0.018830000000    -0.0683685  
C698     C      0.632500000000     0.457540000000     0.004170000000     0.0196071  
C699     C      0.655800000000     0.433840000000     0.053500000000    -6.41414e-05
C700     C      0.640690000000     0.423850000000     0.069560000000    -0.0378013  
C701     C      0.655330000000     0.409670000000     0.084220000000    -0.0376118  
C702     C      0.685430000000     0.405130000000     0.083180000000    -0.000334703
C703     C      0.700550000000     0.415120000000     0.067140000000    -0.0376158  
C704     C      0.685900000000     0.429310000000     0.052460000000    -0.0377781  
C705     C      0.700980000000     0.389950000000     0.098770000000     0.0287634  
C706     C      0.694160000000     0.395670000000     0.117850000000    -0.0691335  
C707     C      0.708640000000     0.381270000000     0.132500000000     0.0191975  
C708     C      0.730310000000     0.360740000000     0.128420000000    -0.100507   
C709     C      0.737170000000     0.355110000000     0.109290000000     0.0206321  
C710     C      0.722700000000     0.369550000000     0.094660000000    -0.0688039  
C711     C      0.860430000000     0.227690000000     0.128430000000    -0.100616   
C712     C      0.853550000000     0.233280000000     0.109300000000     0.0207225  
C713     C      0.868020000000     0.218840000000     0.094670000000    -0.0689292  
C714     C      0.889750000000     0.198450000000     0.098780000000     0.0287921  
C715     C      0.896590000000     0.192760000000     0.117870000000    -0.0691613  
C716     C      0.882110000000     0.207180000000     0.132510000000     0.0193396  
C717     C      0.905310000000     0.183270000000     0.083210000000    -0.000354161
C718     C      0.890190000000     0.173250000000     0.067170000000    -0.0375852  
C719     C      0.904830000000     0.159070000000     0.052500000000    -0.0376766  
C720     C      0.934940000000     0.154560000000     0.053530000000    -0.000277742
C721     C      0.950050000000     0.164570000000     0.069570000000    -0.0376613  
C722     C      0.935410000000     0.178770000000     0.084240000000    -0.0376454  
C723     C      0.950510000000     0.139420000000     0.037940000000     0.0290821  
C724     C      0.943680000000     0.145190000000     0.018860000000    -0.0688371  
C725     C      0.958220000000     0.130850000000     0.004190000000     0.0204155  
C726     C      0.979930000000     0.110380000000     0.008260000000    -0.0991548  
C727     C      0.986780000000     0.104700000000     0.027380000000     0.0225398  
C728     C      0.972260000000     0.119060000000     0.042030000000    -0.0693443  
C729     C      0.862290000000     0.358890000000     0.258270000000    -0.0981275  
C730     C      0.855230000000     0.353450000000     0.277380000000     0.0202045  
C731     C      0.869500000000     0.368080000000     0.292020000000    -0.0680998  
C732     C      0.891210000000     0.388490000000     0.287930000000     0.0284076  
C733     C      0.898390000000     0.393860000000     0.268860000000    -0.0675452  
C734     C      0.884110000000     0.379270000000     0.254200000000     0.0183295  
C735     C      0.906210000000     0.404200000000     0.303500000000     4.55612e-05
C736     C      0.890570000000     0.414530000000     0.319240000000    -0.0377706  
C737     C      0.904660000000     0.429340000000     0.333870000000    -0.0374988  
C738     C      0.934740000000     0.434170000000     0.333110000000    -0.000349511
C739     C      0.950390000000     0.423830000000     0.317380000000    -0.0374448  
C740     C      0.936290000000     0.409020000000     0.302740000000    -0.0377002  
C741     C      0.949750000000     0.449880000000     0.348690000000     0.0295432  
C742     C      0.942520000000     0.444550000000     0.367760000000    -0.0689181  
C743     C      0.956780000000     0.459160000000     0.382420000000     0.0210903  
C744     C      0.978640000000     0.479490000000     0.378350000000    -0.0991227  
C745     C      0.985750000000     0.484890000000     0.359240000000     0.0233687  
C746     C      0.971490000000     0.470250000000     0.344600000000    -0.0693844  
C747     C      0.978460000000     0.108900000000     0.378400000000    -0.0994315  
C748     C      0.985630000000     0.103570000000     0.359290000000     0.0230554  
C749     C      0.971340000000     0.118190000000     0.344650000000    -0.0691941  
C750     C      0.949530000000     0.138500000000     0.348750000000     0.0290205  
C751     C      0.942270000000     0.143770000000     0.367820000000    -0.0680304  
C752     C      0.956540000000     0.129150000000     0.382470000000     0.0190805  
C753     C      0.934510000000     0.154210000000     0.333170000000    -0.000116298
C754     C      0.926330000000     0.139690000000     0.316470000000    -0.0376309  
C755     C      0.912280000000     0.154480000000     0.301820000000    -0.037526   
C756     C      0.906070000000     0.184150000000     0.303510000000    -0.000176692
C757     C      0.914240000000     0.198670000000     0.320220000000    -0.0375347  
C758     C      0.928300000000     0.183880000000     0.334880000000    -0.0375695  
C759     C      0.891040000000     0.199860000000     0.287950000000     0.0288464  
C760     C      0.898360000000     0.194640000000     0.268870000000    -0.0684068  
C761     C      0.884110000000     0.209270000000     0.254220000000     0.0203698  
C762     C      0.862150000000     0.229480000000     0.258290000000    -0.0978269  
C763     C      0.854930000000     0.234760000000     0.277410000000     0.0204167  
C764     C      0.869210000000     0.220140000000     0.292040000000    -0.0681629  
C765     C      0.612300000000     0.479630000000     0.378380000000    -0.098123   
C766     C      0.605200000000     0.485060000000     0.359260000000     0.0201481  
C767     C      0.619470000000     0.470430000000     0.344620000000    -0.0679908  
C768     C      0.641210000000     0.450060000000     0.348700000000     0.0283982  
C769     C      0.648440000000     0.444720000000     0.367780000000    -0.0675516  
C770     C      0.634160000000     0.459300000000     0.382440000000     0.0183531  
C771     C      0.656220000000     0.434360000000     0.333130000000     0.00010016 
C772     C      0.640570000000     0.423970000000     0.317410000000    -0.0377222  
C773     C      0.654660000000     0.409160000000     0.302780000000    -0.0374416  
C774     C      0.684750000000     0.404380000000     0.303510000000    -0.000183382
C775     C      0.700400000000     0.414770000000     0.319230000000    -0.0374122  
C776     C      0.686310000000     0.429580000000     0.333870000000    -0.0376855  
C777     C      0.699750000000     0.388660000000     0.287950000000     0.0288983  
C778     C      0.692490000000     0.393940000000     0.268870000000    -0.0683826  
C779     C      0.706750000000     0.379320000000     0.254220000000     0.0203348  
C780     C      0.728640000000     0.359020000000     0.258280000000    -0.0979072  
C781     C      0.735790000000     0.353670000000     0.277400000000     0.0204815  
C782     C      0.721530000000     0.368320000000     0.292030000000    -0.0682009  
C783     C      0.980320000000     0.477670000000     0.008220000000    -0.100659   
C784     C      0.958690000000     0.457110000000     0.004130000000     0.0218028  
C785     C      0.944210000000     0.442700000000     0.018780000000    -0.0700087  
C786     C      0.951000000000     0.448440000000     0.037870000000     0.0296677  
C787     C      0.972690000000     0.468870000000     0.041980000000    -0.0698568  
C788     C      0.987160000000     0.483310000000     0.027350000000     0.0234023  
C789     C      0.935450000000     0.433270000000     0.053440000000    -0.000603146
C790     C      0.905350000000     0.428700000000     0.052390000000    -0.0374108  
C791     C      0.890700000000     0.414510000000     0.067060000000    -0.0378468  
C792     C      0.905800000000     0.404560000000     0.083130000000     2.434e-05  
C793     C      0.935900000000     0.409130000000     0.084170000000    -0.0377302  
C794     C      0.950550000000     0.423310000000     0.069510000000    -0.0373411  
C795     C      0.890230000000     0.389440000000     0.098710000000     0.0282219  
C796     C      0.868520000000     0.369030000000     0.094630000000    -0.0681137  
C797     C      0.853990000000     0.354670000000     0.109270000000     0.0198078  
C798     C      0.860810000000     0.360390000000     0.128400000000    -0.0989025  
C799     C      0.882470000000     0.380920000000     0.132460000000     0.0180008  
C800     C      0.897010000000     0.395250000000     0.117800000000    -0.0678484  
H513     H      0.545340000000     0.481420000000     0.416300000000     0.209619   
H514     H      0.609180000000     0.044220000000     0.471680000000     0.203715   
H515     H      0.545430000000     0.107070000000     0.416330000000     0.209843   
H516     H      0.981570000000     0.044230000000     0.471680000000     0.20319    
H517     H      0.648940000000     0.014890000000     0.445260000000     0.123251   
H518     H      0.653130000000     0.076130000000     0.445140000000     0.185298   
H519     H      0.572640000000     0.143200000000     0.454300000000     0.148028   
H520     H      0.508140000000     0.148100000000     0.430930000000     0.199362   
H521     H      0.941820000000     0.073580000000     0.445260000000     0.125214   
H522     H      0.937630000000     0.012340000000     0.445140000000     0.182978   
H523     H      0.518110000000     0.445270000000     0.454260000000     0.148068   
H524     H      0.582630000000     0.440380000000     0.430890000000     0.199318   
H525     H      0.512450000000     0.148030000000     0.454520000000     0.202985   
H526     H      0.942260000000     0.476560000000     0.443000000000     0.202959   
H527     H      0.578300000000     0.440430000000     0.454480000000     0.202683   
H528     H      0.648500000000     0.111920000000     0.443040000000     0.202441   
H529     H      0.795320000000     0.357070000000     0.220340000000     0.209347   
H530     H      0.859180000000     0.294250000000     0.164980000000     0.203883   
H531     H      0.795450000000     0.231420000000     0.220350000000     0.209757   
H532     H      0.731580000000     0.294200000000     0.164980000000     0.203865   
H533     H      0.898940000000     0.323620000000     0.191370000000     0.125445   
H534     H      0.903140000000     0.262380000000     0.191510000000     0.185354   
H535     H      0.822670000000     0.195280000000     0.182400000000     0.148133   
H536     H      0.758170000000     0.190370000000     0.205770000000     0.199374   
H537     H      0.691820000000     0.264850000000     0.191400000000     0.125349   
H538     H      0.687620000000     0.326090000000     0.191520000000     0.185454   
H539     H      0.768090000000     0.393190000000     0.182370000000     0.148153   
H540     H      0.832590000000     0.398110000000     0.205730000000     0.199708   
H541     H      0.762490000000     0.190420000000     0.182180000000     0.202727   
H542     H      0.692240000000     0.361880000000     0.193650000000     0.202686   
H543     H      0.828270000000     0.398050000000     0.182150000000     0.202932   
H544     H      0.898530000000     0.226590000000     0.193650000000     0.202521   
H545     H      0.587090000000     0.089430000000     0.031120000000     0.037171   
H546     H      0.612520000000     0.114370000000     0.056560000000     0.0457871  
H547     H      0.662910000000     0.161580000000     0.015170000000     0.0458291  
H548     H      0.637940000000     0.136300000000     0.489640000000     0.0324449  
H549     H      0.616940000000     0.162330000000     0.070650000000     0.0375697  
H550     H      0.642500000000     0.187100000000     0.096240000000     0.0377238  
H551     H      0.723320000000     0.176630000000     0.065990000000     0.03756    
H552     H      0.697760000000     0.151860000000     0.040410000000     0.0372672  
H553     H      0.677380000000     0.177310000000     0.121470000000     0.0459089  
H554     H      0.702450000000     0.202450000000     0.147020000000     0.0368853  
H555     H      0.753270000000     0.249400000000     0.105560000000     0.0372402  
H556     H      0.727740000000     0.224580000000     0.080100000000     0.0457853  
H557     H      0.700670000000     0.204340000000     0.239710000000     0.0371431  
H558     H      0.676020000000     0.178780000000     0.265250000000     0.0460977  
H559     H      0.727030000000     0.225430000000     0.306600000000     0.0460613  
H560     H      0.752120000000     0.250680000000     0.281130000000     0.0376412  
H561     H      0.641730000000     0.187560000000     0.290980000000     0.0383401  
H562     H      0.617130000000     0.161740000000     0.316520000000     0.0379861  
H563     H      0.698850000000     0.151190000000     0.345700000000     0.0378235  
H564     H      0.723450000000     0.177020000000     0.320170000000     0.0378893  
H565     H      0.613500000000     0.113370000000     0.330080000000     0.0460233  
H566     H      0.588430000000     0.088070000000     0.355530000000     0.0374656  
H567     H      0.640010000000     0.134220000000     0.396970000000     0.0348018  
H568     H      0.664620000000     0.159840000000     0.371450000000     0.0458988  
H569     H      0.587470000000     0.499390000000     0.031100000000     0.0376362  
H570     H      0.612990000000     0.474570000000     0.056560000000     0.0458038  
H571     H      0.663400000000     0.427340000000     0.015200000000     0.0464736  
H572     H      0.638330000000     0.452490000000     0.489650000000     0.0370358  
H573     H      0.617430000000     0.426610000000     0.070670000000     0.0376061  
H574     H      0.642970000000     0.401840000000     0.096250000000     0.0372418  
H575     H      0.723800000000     0.412360000000     0.066030000000     0.0377144  
H576     H      0.698260000000     0.437120000000     0.040430000000     0.0378779  
H577     H      0.677820000000     0.411550000000     0.121500000000     0.0454247  
H578     H      0.702780000000     0.386270000000     0.147020000000     0.0325039  
H579     H      0.753660000000     0.339430000000     0.105550000000     0.0370848  
H580     H      0.728230000000     0.364390000000     0.080100000000     0.0459685  
H581     H      0.837050000000     0.248940000000     0.105550000000     0.0370477  
H582     H      0.862470000000     0.223980000000     0.080120000000     0.0460455  
H583     H      0.912960000000     0.176900000000     0.121520000000     0.045397   
H584     H      0.887990000000     0.202200000000     0.147050000000     0.0324543  
H585     H      0.866920000000     0.176000000000     0.066060000000     0.0375942  
H586     H      0.892470000000     0.151220000000     0.040470000000     0.0377265  
H587     H      0.973320000000     0.161840000000     0.070680000000     0.0377665  
H588     H      0.947780000000     0.186620000000     0.096260000000     0.037385   
H589     H      0.927310000000     0.161040000000     0.015220000000     0.0466333  
H590     H      0.952370000000     0.135900000000     0.489680000000     0.0369006  
H591     H      0.503310000000     0.089060000000     0.031120000000     0.0374004  
H592     H      0.977790000000     0.113870000000     0.056590000000     0.0461799  
H593     H      0.838630000000     0.337870000000     0.281110000000     0.0375141  
H594     H      0.863720000000     0.363140000000     0.306570000000     0.0458593  
H595     H      0.914770000000     0.409710000000     0.265210000000     0.0461576  
H596     H      0.890120000000     0.384130000000     0.239680000000     0.0372944  
H597     H      0.867300000000     0.411580000000     0.320110000000     0.0375867  
H598     H      0.891910000000     0.437410000000     0.345650000000     0.0376936  
H599     H      0.973640000000     0.426780000000     0.316500000000     0.0379504  
H600     H      0.949050000000     0.400960000000     0.290960000000     0.0383479  
H601     H      0.926120000000     0.428730000000     0.371400000000     0.0460275  
H602     H      0.950710000000     0.454340000000     0.396930000000     0.0347652  
H603     H      0.502380000000     0.000440000000     0.355510000000     0.0350122  
H604     H      0.977300000000     0.475150000000     0.330050000000     0.0465034  
H605     H      0.502430000000     0.088220000000     0.355560000000     0.0374324  
H606     H      0.977690000000     0.113890000000     0.330120000000     0.046427   
H607     H      0.925300000000     0.159010000000     0.371450000000     0.0463133  
H608     H      0.950340000000     0.133810000000     0.396980000000     0.0372505  
H609     H      0.930400000000     0.116750000000     0.314830000000     0.0380257  
H610     H      0.905860000000     0.142550000000     0.289250000000     0.0378231  
H611     H      0.910170000000     0.221620000000     0.321870000000     0.0381447  
H612     H      0.934710000000     0.195810000000     0.347440000000     0.0378716  
H613     H      0.915350000000     0.179430000000     0.265260000000     0.0458679  
H614     H      0.890360000000     0.204660000000     0.239710000000     0.0348054  
H615     H      0.838110000000     0.250100000000     0.281130000000     0.0375447  
H616     H      0.862820000000     0.224420000000     0.306570000000     0.045995   
H617     H      0.588570000000     0.000600000000     0.355530000000     0.0351384  
H618     H      0.613660000000     0.475340000000     0.330070000000     0.0459672  
H619     H      0.664850000000     0.428900000000     0.371410000000     0.0461545  
H620     H      0.640200000000     0.454470000000     0.396950000000     0.0372729  
H621     H      0.617300000000     0.426900000000     0.316550000000     0.0376343  
H622     H      0.641900000000     0.401050000000     0.291010000000     0.0377328  
H623     H      0.723670000000     0.411860000000     0.320100000000     0.0377156  
H624     H      0.699070000000     0.437680000000     0.345640000000     0.038232   
H625     H      0.676050000000     0.409730000000     0.265230000000     0.0458534  
H626     H      0.700660000000     0.384100000000     0.239710000000     0.0348284  
H627     H      0.752430000000     0.338150000000     0.281140000000     0.0375233  
H628     H      0.727370000000     0.363460000000     0.306580000000     0.0460433  
H629     H      0.952850000000     0.452100000000     0.489610000000     0.0324849  
H630     H      0.927880000000     0.426800000000     0.015120000000     0.04604    
H631     H      0.978190000000     0.474050000000     0.056540000000     0.0465637  
H632     H      0.503630000000     0.499010000000     0.031100000000     0.037419   
H633     H      0.892990000000     0.436500000000     0.040350000000     0.0373419  
H634     H      0.867440000000     0.411730000000     0.065940000000     0.0376652  
H635     H      0.948250000000     0.401330000000     0.096220000000     0.0379063  
H636     H      0.973810000000     0.426090000000     0.070630000000     0.0378602  
H637     H      0.863020000000     0.363790000000     0.080070000000     0.0457897  
H638     H      0.837500000000     0.338980000000     0.105540000000     0.037306   
H639     H      0.888280000000     0.386000000000     0.146990000000     0.0370343  
H640     H      0.913350000000     0.411130000000     0.121430000000     0.0461202  
O257     O      0.988210000000     0.487110000000     0.475370000000    -0.35484    
O258     O      0.514700000000     0.012280000000     0.497430000000    -0.347169   
O259     O      0.604300000000     0.488900000000     0.411240000000    -0.349262   
O260     O      0.576710000000     0.012970000000     0.389220000000    -0.345965   
O261     O      0.602890000000     0.487380000000     0.475380000000    -0.351591   
O262     O      0.576180000000     0.012380000000     0.497420000000    -0.346578   
O263     O      0.986630000000     0.488750000000     0.411220000000    -0.344362   
O264     O      0.514090000000     0.012950000000     0.389210000000    -0.346157   
O265     O      0.508030000000     0.450260000000     0.442280000000    -0.340437   
O266     O      0.950320000000     0.495800000000     0.443910000000    -0.512669   
O267     O      0.581940000000     0.450780000000     0.442790000000    -0.513206   
O268     O      0.640820000000     0.495180000000     0.443780000000    -0.327437   
O269     O      0.545340000000     0.497980000000     0.462260000000    -0.468029   
O270     O      0.545340000000     0.498160000000     0.424520000000    -0.609164   
O271     O      0.986460000000     0.099610000000     0.411260000000    -0.348854   
O272     O      0.514060000000     0.075560000000     0.389230000000    -0.343731   
O273     O      0.602540000000     0.101330000000     0.475400000000    -0.355556   
O274     O      0.576050000000     0.076150000000     0.497450000000    -0.344893   
O275     O      0.604130000000     0.099750000000     0.411240000000    -0.344792   
O276     O      0.576660000000     0.075560000000     0.389220000000    -0.343775   
O277     O      0.987870000000     0.101060000000     0.475400000000    -0.351311   
O278     O      0.514580000000     0.076050000000     0.497430000000    -0.344357   
O279     O      0.508820000000     0.137700000000     0.442830000000    -0.513593   
O280     O      0.949940000000     0.093290000000     0.443800000000    -0.326961   
O281     O      0.582730000000     0.138220000000     0.442320000000    -0.340306   
O282     O      0.640440000000     0.092660000000     0.443930000000    -0.513183   
O283     O      0.545420000000     0.090330000000     0.424540000000    -0.609216   
O284     O      0.545430000000     0.090480000000     0.462270000000    -0.467932   
O285     O      0.998100000000     0.044300000000     0.422970000000    -0.472346   
O286     O      0.592410000000     0.044190000000     0.463460000000    -0.622656   
O287     O      0.998350000000     0.044260000000     0.463450000000    -0.620517   
O288     O      0.592660000000     0.044190000000     0.422970000000    -0.474079   
O289     O      0.738190000000     0.351320000000     0.161270000000    -0.355617   
O290     O      0.764690000000     0.326150000000     0.139220000000    -0.345025   
O291     O      0.854300000000     0.349620000000     0.225400000000    -0.349344   
O292     O      0.826710000000     0.325550000000     0.247420000000    -0.34398    
O293     O      0.852870000000     0.351080000000     0.161260000000    -0.351426   
O294     O      0.826170000000     0.326060000000     0.139220000000    -0.344229   
O295     O      0.736620000000     0.349740000000     0.225420000000    -0.344752   
O296     O      0.764100000000     0.325550000000     0.247440000000    -0.34367    
O297     O      0.757990000000     0.388210000000     0.194340000000    -0.340467   
O298     O      0.700300000000     0.342630000000     0.192740000000    -0.513254   
O299     O      0.831910000000     0.387710000000     0.193840000000    -0.513891   
O300     O      0.890810000000     0.343320000000     0.192850000000    -0.327558   
O301     O      0.795320000000     0.340480000000     0.174390000000    -0.468056   
O302     O      0.795330000000     0.340320000000     0.212120000000    -0.608961   
O303     O      0.736470000000     0.238870000000     0.225420000000    -0.349343   
O304     O      0.764060000000     0.262950000000     0.247430000000    -0.34404    
O305     O      0.852560000000     0.237130000000     0.161280000000    -0.355531   
O306     O      0.826050000000     0.262290000000     0.139220000000    -0.344773   
O307     O      0.854140000000     0.238750000000     0.225430000000    -0.344747   
O308     O      0.826680000000     0.262950000000     0.247450000000    -0.343889   
O309     O      0.737890000000     0.237370000000     0.161280000000    -0.351664   
O310     O      0.764570000000     0.262380000000     0.139240000000    -0.344464   
O311     O      0.758850000000     0.200760000000     0.193870000000    -0.513512   
O312     O      0.699950000000     0.245150000000     0.192880000000    -0.327668   
O313     O      0.832760000000     0.200260000000     0.194370000000    -0.340619   
O314     O      0.890450000000     0.245840000000     0.192740000000    -0.512998   
O315     O      0.795440000000     0.248150000000     0.212130000000    -0.609207   
O316     O      0.795440000000     0.247980000000     0.174410000000    -0.468084   
O317     O      0.748110000000     0.294170000000     0.213690000000    -0.474107   
O318     O      0.842400000000     0.294280000000     0.173200000000    -0.622786   
O319     O      0.748350000000     0.294180000000     0.173210000000    -0.622891   
O320     O      0.842670000000     0.294310000000     0.213690000000    -0.47394    
Zr49     Zr     0.502100000000     0.002610000000     0.443290000000     1.28494    
Zr50     Zr     0.588570000000     0.002510000000     0.443310000000     1.28552    
Zr51     Zr     0.502180000000     0.085960000000     0.443330000000     1.29126    
Zr52     Zr     0.588660000000     0.085860000000     0.443310000000     1.29067    
Zr53     Zr     0.545380000000     0.044220000000     0.478950000000     1.2645     
Zr54     Zr     0.545380000000     0.044250000000     0.407720000000     1.26139    
Zr55     Zr     0.752090000000     0.335850000000     0.193350000000     1.29081    
Zr56     Zr     0.838570000000     0.335980000000     0.193340000000     1.29128    
Zr57     Zr     0.752190000000     0.252500000000     0.193350000000     1.29135    
Zr58     Zr     0.838680000000     0.252620000000     0.193350000000     1.29092    
Zr59     Zr     0.795370000000     0.294230000000     0.157710000000     1.2655     
Zr60     Zr     0.795390000000     0.294240000000     0.228940000000     1.2622     
C801     C      0.995470000000     0.493280000000     0.992680000000     0.335081   
C802     C      0.596830000000     0.494880000000     0.893940000000     0.33408    
C803     C      0.595570000000     0.493520000000     0.992680000000     0.330991   
C804     C      0.994060000000     0.494780000000     0.893920000000     0.337684   
C805     C      0.993940000000     0.093650000000     0.893960000000     0.336266   
C806     C      0.595280000000     0.095160000000     0.992700000000     0.332973   
C807     C      0.596700000000     0.093740000000     0.893940000000     0.335233   
C808     C      0.995180000000     0.094910000000     0.992700000000     0.333425   
C809     C      0.745450000000     0.345140000000     0.643970000000     0.334406   
C810     C      0.846820000000     0.343650000000     0.742700000000     0.334081   
C811     C      0.845550000000     0.344930000000     0.643950000000     0.332314   
C812     C      0.744050000000     0.343730000000     0.742730000000     0.335423   
C813     C      0.743940000000     0.244860000000     0.742720000000     0.33429    
C814     C      0.845290000000     0.243290000000     0.643970000000     0.334058   
C815     C      0.846710000000     0.244770000000     0.742730000000     0.335432   
C816     C      0.745200000000     0.243510000000     0.643970000000     0.332653   
C817     C      0.610430000000     0.110740000000     0.508250000000    -0.100637   
C818     C      0.603570000000     0.105110000000     0.527380000000     0.0205495  
C819     C      0.618050000000     0.119540000000     0.542010000000    -0.068984   
C820     C      0.639750000000     0.139960000000     0.537910000000     0.0286815  
C821     C      0.646560000000     0.145690000000     0.518820000000    -0.0690942  
C822     C      0.632080000000     0.131290000000     0.504170000000     0.0191694  
C823     C      0.655310000000     0.155130000000     0.553480000000    -0.000470796
C824     C      0.640200000000     0.165100000000     0.569540000000    -0.0376118  
C825     C      0.654850000000     0.179280000000     0.584210000000    -0.0378717  
C826     C      0.684950000000     0.183830000000     0.583160000000    -8.79909e-05
C827     C      0.700060000000     0.173860000000     0.567100000000    -0.0379153  
C828     C      0.685410000000     0.159680000000     0.552440000000    -0.0376942  
C829     C      0.700520000000     0.198970000000     0.598750000000     0.0281814  
C830     C      0.693730000000     0.193180000000     0.617840000000    -0.0679841  
C831     C      0.708270000000     0.207520000000     0.632490000000     0.0179971  
C832     C      0.729950000000     0.228030000000     0.628420000000    -0.0990985  
C833     C      0.736770000000     0.233730000000     0.609300000000     0.0198841  
C834     C      0.722230000000     0.219370000000     0.594660000000    -0.0682622  
C835     C      0.728480000000     0.229620000000     0.758280000000    -0.0983191  
C836     C      0.706670000000     0.209240000000     0.754230000000     0.0184989  
C837     C      0.692390000000     0.194650000000     0.768890000000    -0.0675857  
C838     C      0.699570000000     0.200050000000     0.787960000000     0.0283978  
C839     C      0.721260000000     0.220480000000     0.792040000000    -0.0678662  
C840     C      0.735540000000     0.235100000000     0.777400000000     0.0202377  
C841     C      0.684550000000     0.184350000000     0.803540000000     0.000207581
C842     C      0.654480000000     0.179520000000     0.802770000000    -0.037743   
C843     C      0.640380000000     0.164710000000     0.817400000000    -0.0374403  
C844     C      0.656020000000     0.154390000000     0.833150000000    -0.000192816
C845     C      0.686100000000     0.159230000000     0.833920000000    -0.0374314  
C846     C      0.700200000000     0.174050000000     0.819290000000    -0.0378606  
C847     C      0.641020000000     0.138670000000     0.848730000000     0.0289463  
C848     C      0.619290000000     0.118280000000     0.844630000000    -0.0682454  
C849     C      0.605030000000     0.103630000000     0.859270000000     0.0204544  
C850     C      0.612130000000     0.109040000000     0.878380000000    -0.0979262  
C851     C      0.633960000000     0.129390000000     0.882450000000     0.0203412  
C852     C      0.648220000000     0.144010000000     0.867800000000    -0.0684676  
C853     C      0.610820000000     0.478040000000     0.508250000000    -0.0986652  
C854     C      0.603980000000     0.483730000000     0.527370000000     0.0197447  
C855     C      0.618510000000     0.469370000000     0.542010000000    -0.0682368  
C856     C      0.640230000000     0.448980000000     0.537920000000     0.0281449  
C857     C      0.647040000000     0.443200000000     0.518830000000    -0.0677555  
C858     C      0.632500000000     0.457540000000     0.504170000000     0.0177295  
C859     C      0.655800000000     0.433840000000     0.553510000000     1.99003e-05
C860     C      0.640690000000     0.423850000000     0.569560000000    -0.0378911  
C861     C      0.655330000000     0.409670000000     0.584220000000    -0.0376082  
C862     C      0.685430000000     0.405130000000     0.583180000000    -0.000367478
C863     C      0.700550000000     0.415120000000     0.567140000000    -0.0376352  
C864     C      0.685900000000     0.429310000000     0.552460000000    -0.0378801  
C865     C      0.700980000000     0.389950000000     0.598760000000     0.0287121  
C866     C      0.694160000000     0.395670000000     0.617850000000    -0.0691105  
C867     C      0.708640000000     0.381270000000     0.632500000000     0.0192195  
C868     C      0.730310000000     0.360740000000     0.628420000000    -0.100521   
C869     C      0.737170000000     0.355110000000     0.609290000000     0.0206157  
C870     C      0.722700000000     0.369550000000     0.594660000000    -0.068801   
C871     C      0.860430000000     0.227690000000     0.628430000000    -0.100636   
C872     C      0.853550000000     0.233280000000     0.609310000000     0.0207355  
C873     C      0.868020000000     0.218840000000     0.594670000000    -0.0689475  
C874     C      0.889750000000     0.198450000000     0.598780000000     0.0287817  
C875     C      0.896590000000     0.192760000000     0.617870000000    -0.069167   
C876     C      0.882110000000     0.207180000000     0.632510000000     0.0193441  
C877     C      0.905310000000     0.183270000000     0.583210000000    -0.000393228
C878     C      0.890190000000     0.173250000000     0.567170000000    -0.0375902  
C879     C      0.904830000000     0.159070000000     0.552500000000    -0.0378128  
C880     C      0.934940000000     0.154560000000     0.553530000000    -0.000245748
C881     C      0.950050000000     0.164570000000     0.569570000000    -0.0377228  
C882     C      0.935410000000     0.178770000000     0.584240000000    -0.0376483  
C883     C      0.950510000000     0.139420000000     0.537940000000     0.0288551  
C884     C      0.943680000000     0.145190000000     0.518850000000    -0.068412   
C885     C      0.958220000000     0.130850000000     0.504200000000     0.018705   
C886     C      0.979930000000     0.110380000000     0.508270000000    -0.100258   
C887     C      0.986780000000     0.104700000000     0.527380000000     0.0228035  
C888     C      0.972260000000     0.119060000000     0.542030000000    -0.0695348  
C889     C      0.862290000000     0.358890000000     0.758270000000    -0.0981002  
C890     C      0.855230000000     0.353450000000     0.777380000000     0.0201954  
C891     C      0.869500000000     0.368080000000     0.792020000000    -0.0680905  
C892     C      0.891210000000     0.388490000000     0.787930000000     0.0284053  
C893     C      0.898390000000     0.393860000000     0.768860000000    -0.0675313  
C894     C      0.884110000000     0.379270000000     0.754200000000     0.0183261  
C895     C      0.906210000000     0.404200000000     0.803500000000     5.07182e-05
C896     C      0.890570000000     0.414530000000     0.819240000000    -0.0377747  
C897     C      0.904660000000     0.429340000000     0.833870000000    -0.0375067  
C898     C      0.934740000000     0.434170000000     0.833110000000    -0.000360531
C899     C      0.950390000000     0.423830000000     0.817380000000    -0.0374413  
C900     C      0.936290000000     0.409020000000     0.802740000000    -0.0377026  
C901     C      0.949750000000     0.449880000000     0.848690000000     0.029549   
C902     C      0.942520000000     0.444550000000     0.867760000000    -0.0689617  
C903     C      0.956780000000     0.459160000000     0.882420000000     0.0211203  
C904     C      0.978640000000     0.479490000000     0.878350000000    -0.0991608  
C905     C      0.985750000000     0.484890000000     0.859240000000     0.023384   
C906     C      0.971490000000     0.470250000000     0.844600000000    -0.0693979  
C907     C      0.978460000000     0.108900000000     0.878400000000    -0.0994839  
C908     C      0.985630000000     0.103570000000     0.859290000000     0.0231043  
C909     C      0.971340000000     0.118190000000     0.844650000000    -0.0692313  
C910     C      0.949530000000     0.138500000000     0.848750000000     0.0290497  
C911     C      0.942270000000     0.143770000000     0.867820000000    -0.0680883  
C912     C      0.956540000000     0.129150000000     0.882470000000     0.019123   
C913     C      0.934510000000     0.154210000000     0.833170000000    -0.000163344
C914     C      0.926330000000     0.139690000000     0.816470000000    -0.0375627  
C915     C      0.912280000000     0.154480000000     0.801820000000    -0.0376436  
C916     C      0.906070000000     0.184150000000     0.803520000000    -8.59274e-05
C917     C      0.914240000000     0.198670000000     0.820220000000    -0.0375953  
C918     C      0.928300000000     0.183880000000     0.834880000000    -0.0375399  
C919     C      0.891040000000     0.199860000000     0.787950000000     0.0287992  
C920     C      0.898360000000     0.194640000000     0.768870000000    -0.0683651  
C921     C      0.884110000000     0.209270000000     0.754220000000     0.0203272  
C922     C      0.862150000000     0.229480000000     0.758290000000    -0.0978106  
C923     C      0.854930000000     0.234760000000     0.777410000000     0.0204028  
C924     C      0.869210000000     0.220140000000     0.792040000000    -0.0681377  
C925     C      0.612300000000     0.479630000000     0.878380000000    -0.0981225  
C926     C      0.605200000000     0.485060000000     0.859260000000     0.0201466  
C927     C      0.619470000000     0.470430000000     0.844620000000    -0.0680047  
C928     C      0.641210000000     0.450060000000     0.848700000000     0.028428   
C929     C      0.648440000000     0.444720000000     0.867770000000    -0.0675506  
C930     C      0.634160000000     0.459300000000     0.882440000000     0.0182911  
C931     C      0.656220000000     0.434360000000     0.833130000000     7.37425e-05
C932     C      0.640570000000     0.423970000000     0.817410000000    -0.0376986  
C933     C      0.654660000000     0.409160000000     0.802780000000    -0.0374717  
C934     C      0.684750000000     0.404380000000     0.803520000000    -0.000146141
C935     C      0.700400000000     0.414770000000     0.819230000000    -0.0374456  
C936     C      0.686310000000     0.429580000000     0.833870000000    -0.0376739  
C937     C      0.699750000000     0.388660000000     0.787950000000     0.0289103  
C938     C      0.692490000000     0.393940000000     0.768870000000    -0.0684176  
C939     C      0.706750000000     0.379320000000     0.754220000000     0.0204445  
C940     C      0.728640000000     0.359020000000     0.758280000000    -0.0981006  
C941     C      0.735790000000     0.353670000000     0.777400000000     0.0205596  
C942     C      0.721530000000     0.368320000000     0.792030000000    -0.0682312  
C943     C      0.980320000000     0.477670000000     0.508220000000    -0.101626   
C944     C      0.958690000000     0.457110000000     0.504130000000     0.0199177  
C945     C      0.944210000000     0.442700000000     0.518780000000    -0.0694788  
C946     C      0.951000000000     0.448440000000     0.537870000000     0.0293936  
C947     C      0.972690000000     0.468870000000     0.541980000000    -0.0698919  
C948     C      0.987160000000     0.483310000000     0.527350000000     0.0235252  
C949     C      0.935450000000     0.433270000000     0.553440000000    -0.000579627
C950     C      0.905350000000     0.428700000000     0.552390000000    -0.0374832  
C951     C      0.890700000000     0.414510000000     0.567060000000    -0.037881   
C952     C      0.905800000000     0.404560000000     0.583130000000     5.31709e-06
C953     C      0.935900000000     0.409130000000     0.584170000000    -0.0377416  
C954     C      0.950550000000     0.423310000000     0.569510000000    -0.0373956  
C955     C      0.890230000000     0.389440000000     0.598710000000     0.0281935  
C956     C      0.868520000000     0.369030000000     0.594630000000    -0.0681395  
C957     C      0.853990000000     0.354670000000     0.609280000000     0.0198522  
C958     C      0.860810000000     0.360390000000     0.628390000000    -0.0988397  
C959     C      0.882470000000     0.380920000000     0.632460000000     0.0179217  
C960     C      0.897010000000     0.395250000000     0.617800000000    -0.0677961  
H641     H      0.545340000000     0.481420000000     0.916300000000     0.209598   
H642     H      0.609180000000     0.044220000000     0.971680000000     0.203319   
H643     H      0.545430000000     0.107070000000     0.916330000000     0.209824   
H644     H      0.981570000000     0.044230000000     0.971680000000     0.203029   
H645     H      0.648940000000     0.014890000000     0.945260000000     0.123163   
H646     H      0.653130000000     0.076130000000     0.945140000000     0.185151   
H647     H      0.572640000000     0.143200000000     0.954300000000     0.147864   
H648     H      0.508140000000     0.148100000000     0.930930000000     0.199259   
H649     H      0.941820000000     0.073580000000     0.945260000000     0.125109   
H650     H      0.937630000000     0.012340000000     0.945140000000     0.182819   
H651     H      0.518110000000     0.445270000000     0.954260000000     0.147896   
H652     H      0.582630000000     0.440380000000     0.930890000000     0.19896    
H653     H      0.512450000000     0.148030000000     0.954520000000     0.202765   
H654     H      0.942260000000     0.476560000000     0.943000000000     0.202787   
H655     H      0.578300000000     0.440430000000     0.954480000000     0.202715   
H656     H      0.648500000000     0.111920000000     0.943040000000     0.202272   
H657     H      0.795320000000     0.357070000000     0.720340000000     0.209341   
H658     H      0.859180000000     0.294250000000     0.664980000000     0.203881   
H659     H      0.795450000000     0.231420000000     0.720350000000     0.209769   
H660     H      0.731580000000     0.294200000000     0.664990000000     0.204103   
H661     H      0.898940000000     0.323620000000     0.691370000000     0.125421   
H662     H      0.903140000000     0.262380000000     0.691510000000     0.185357   
H663     H      0.822670000000     0.195280000000     0.682390000000     0.147925   
H664     H      0.758170000000     0.190370000000     0.705760000000     0.199727   
H665     H      0.691820000000     0.264850000000     0.691400000000     0.125345   
H666     H      0.687620000000     0.326090000000     0.691520000000     0.185462   
H667     H      0.768090000000     0.393190000000     0.682370000000     0.148153   
H668     H      0.832590000000     0.398110000000     0.705730000000     0.199468   
H669     H      0.762490000000     0.190420000000     0.682180000000     0.202838   
H670     H      0.692240000000     0.361880000000     0.693640000000     0.202715   
H671     H      0.828270000000     0.398050000000     0.682150000000     0.203178   
H672     H      0.898530000000     0.226590000000     0.693660000000     0.202504   
H673     H      0.587090000000     0.089430000000     0.531120000000     0.0368081  
H674     H      0.612520000000     0.114370000000     0.556560000000     0.04574    
H675     H      0.662910000000     0.161580000000     0.515170000000     0.0453411  
H676     H      0.637940000000     0.136300000000     0.989640000000     0.0309651  
H677     H      0.616940000000     0.162330000000     0.570660000000     0.0375317  
H678     H      0.642500000000     0.187100000000     0.596250000000     0.0376721  
H679     H      0.723320000000     0.176630000000     0.565990000000     0.0374864  
H680     H      0.697760000000     0.151860000000     0.540410000000     0.0371262  
H681     H      0.677380000000     0.177310000000     0.621470000000     0.0459175  
H682     H      0.702450000000     0.202450000000     0.647020000000     0.0368787  
H683     H      0.753270000000     0.249400000000     0.605560000000     0.0372121  
H684     H      0.727740000000     0.224580000000     0.580100000000     0.0457092  
H685     H      0.700670000000     0.204340000000     0.739710000000     0.0371601  
H686     H      0.676020000000     0.178780000000     0.765250000000     0.0460913  
H687     H      0.727030000000     0.225430000000     0.806600000000     0.0460415  
H688     H      0.752120000000     0.250680000000     0.781130000000     0.0376373  
H689     H      0.641730000000     0.187560000000     0.790990000000     0.038385   
H690     H      0.617130000000     0.161740000000     0.816520000000     0.0379735  
H691     H      0.698850000000     0.151190000000     0.845710000000     0.0377449  
H692     H      0.723450000000     0.177020000000     0.820170000000     0.0378833  
H693     H      0.613500000000     0.113370000000     0.830080000000     0.0460339  
H694     H      0.588430000000     0.088070000000     0.855530000000     0.0374672  
H695     H      0.640010000000     0.134220000000     0.896970000000     0.0347343  
H696     H      0.664620000000     0.159840000000     0.871450000000     0.0458435  
H697     H      0.587470000000     0.499390000000     0.531100000000     0.037268   
H698     H      0.612990000000     0.474570000000     0.556560000000     0.0457512  
H699     H      0.663400000000     0.427340000000     0.515190000000     0.0459788  
H700     H      0.638330000000     0.452490000000     0.989650000000     0.0355746  
H701     H      0.617430000000     0.426610000000     0.570670000000     0.0375788  
H702     H      0.642970000000     0.401840000000     0.596250000000     0.0372185  
H703     H      0.723800000000     0.412360000000     0.566030000000     0.0376357  
H704     H      0.698260000000     0.437120000000     0.540430000000     0.0377524  
H705     H      0.677820000000     0.411550000000     0.621500000000     0.0454172  
H706     H      0.702780000000     0.386270000000     0.647030000000     0.0324956  
H707     H      0.753660000000     0.339430000000     0.605550000000     0.0370562  
H708     H      0.728230000000     0.364390000000     0.580100000000     0.0458928  
H709     H      0.837050000000     0.248940000000     0.605560000000     0.0370219  
H710     H      0.862470000000     0.223980000000     0.580120000000     0.0459773  
H711     H      0.912960000000     0.176900000000     0.621520000000     0.0453983  
H712     H      0.887990000000     0.202200000000     0.647050000000     0.0324636  
H713     H      0.866920000000     0.176000000000     0.566060000000     0.0375081  
H714     H      0.892470000000     0.151220000000     0.540480000000     0.0376227  
H715     H      0.973320000000     0.161840000000     0.570680000000     0.0377354  
H716     H      0.947780000000     0.186620000000     0.596260000000     0.0373656  
H717     H      0.927310000000     0.161040000000     0.515220000000     0.0462056  
H718     H      0.952370000000     0.135900000000     0.989680000000     0.0354829  
H719     H      0.503310000000     0.089060000000     0.531120000000     0.0369914  
H720     H      0.977790000000     0.113870000000     0.556580000000     0.0462121  
H721     H      0.838630000000     0.337870000000     0.781110000000     0.0375124  
H722     H      0.863720000000     0.363140000000     0.806570000000     0.0458388  
H723     H      0.914770000000     0.409710000000     0.765210000000     0.0461691  
H724     H      0.890120000000     0.384130000000     0.739680000000     0.0373139  
H725     H      0.867300000000     0.411580000000     0.820120000000     0.0375665  
H726     H      0.891910000000     0.437410000000     0.845650000000     0.0376592  
H727     H      0.973640000000     0.426780000000     0.816500000000     0.037952   
H728     H      0.949050000000     0.400960000000     0.790960000000     0.0383566  
H729     H      0.926120000000     0.428730000000     0.871400000000     0.0459762  
H730     H      0.950710000000     0.454340000000     0.896940000000     0.0346884  
H731     H      0.502380000000     0.000440000000     0.855510000000     0.0350069  
H732     H      0.977300000000     0.475150000000     0.830050000000     0.0465155  
H733     H      0.502430000000     0.088220000000     0.855550000000     0.0374125  
H734     H      0.977690000000     0.113890000000     0.830120000000     0.0464436  
H735     H      0.925300000000     0.159010000000     0.871450000000     0.0462656  
H736     H      0.950340000000     0.133810000000     0.896990000000     0.0371682  
H737     H      0.930400000000     0.116750000000     0.814820000000     0.0380052  
H738     H      0.905860000000     0.142550000000     0.789260000000     0.0378789  
H739     H      0.910170000000     0.221620000000     0.821870000000     0.0381385  
H740     H      0.934710000000     0.195810000000     0.847440000000     0.0378251  
H741     H      0.915350000000     0.179430000000     0.765260000000     0.0458687  
H742     H      0.890360000000     0.204660000000     0.739720000000     0.0348197  
H743     H      0.838110000000     0.250100000000     0.781130000000     0.0375424  
H744     H      0.862820000000     0.224420000000     0.806570000000     0.0459683  
H745     H      0.588570000000     0.000600000000     0.855530000000     0.0351358  
H746     H      0.613660000000     0.475340000000     0.830070000000     0.045979   
H747     H      0.664850000000     0.428900000000     0.871410000000     0.0460833  
H748     H      0.640200000000     0.454470000000     0.896950000000     0.0372151  
H749     H      0.617300000000     0.426900000000     0.816540000000     0.0376265  
H750     H      0.641900000000     0.401050000000     0.791010000000     0.0377451  
H751     H      0.723670000000     0.411860000000     0.820100000000     0.0377053  
H752     H      0.699070000000     0.437680000000     0.845640000000     0.0381943  
H753     H      0.676050000000     0.409730000000     0.765230000000     0.0458742  
H754     H      0.700660000000     0.384100000000     0.739710000000     0.0348181  
H755     H      0.752430000000     0.338150000000     0.781140000000     0.0374923  
H756     H      0.727370000000     0.363460000000     0.806580000000     0.0460309  
H757     H      0.952850000000     0.452100000000     0.989600000000     0.0310319  
H758     H      0.927880000000     0.426800000000     0.515130000000     0.0455906  
H759     H      0.978190000000     0.474050000000     0.556540000000     0.0465282  
H760     H      0.503630000000     0.499010000000     0.531100000000     0.0370608  
H761     H      0.892990000000     0.436500000000     0.540350000000     0.0372051  
H762     H      0.867440000000     0.411730000000     0.565940000000     0.0375902  
H763     H      0.948250000000     0.401330000000     0.596220000000     0.0378913  
H764     H      0.973810000000     0.426090000000     0.570630000000     0.0378292  
H765     H      0.863020000000     0.363790000000     0.580070000000     0.0457221  
H766     H      0.837500000000     0.338980000000     0.605540000000     0.0372574  
H767     H      0.888280000000     0.386000000000     0.646990000000     0.0370482  
H768     H      0.913350000000     0.411130000000     0.621440000000     0.0460969  
O321     O      0.988210000000     0.487110000000     0.975380000000    -0.354898   
O322     O      0.514700000000     0.012280000000     0.997430000000    -0.347486   
O323     O      0.604300000000     0.488900000000     0.911240000000    -0.3493     
O324     O      0.576710000000     0.012970000000     0.889220000000    -0.345979   
O325     O      0.602890000000     0.487380000000     0.975380000000    -0.351536   
O326     O      0.576180000000     0.012380000000     0.997420000000    -0.346819   
O327     O      0.986630000000     0.488750000000     0.911220000000    -0.344384   
O328     O      0.514090000000     0.012950000000     0.889210000000    -0.346158   
O329     O      0.508030000000     0.450260000000     0.942280000000    -0.340526   
O330     O      0.950320000000     0.495800000000     0.943910000000    -0.512671   
O331     O      0.581940000000     0.450780000000     0.942800000000    -0.5132     
O332     O      0.640820000000     0.495180000000     0.943780000000    -0.327596   
O333     O      0.545340000000     0.497980000000     0.962260000000    -0.468045   
O334     O      0.545340000000     0.498160000000     0.924520000000    -0.60914    
O335     O      0.986460000000     0.099610000000     0.911260000000    -0.348883   
O336     O      0.514060000000     0.075560000000     0.889230000000    -0.343729   
O337     O      0.602540000000     0.101330000000     0.975400000000    -0.355524   
O338     O      0.576050000000     0.076150000000     0.997440000000    -0.34527    
O339     O      0.604130000000     0.099750000000     0.911240000000    -0.344831   
O340     O      0.576660000000     0.075560000000     0.889220000000    -0.343787   
O341     O      0.987870000000     0.101060000000     0.975400000000    -0.351249   
O342     O      0.514580000000     0.076050000000     0.997430000000    -0.344597   
O343     O      0.508820000000     0.137700000000     0.942830000000    -0.513574   
O344     O      0.949940000000     0.093290000000     0.943800000000    -0.327116   
O345     O      0.582730000000     0.138220000000     0.942320000000    -0.340411   
O346     O      0.640440000000     0.092660000000     0.943930000000    -0.513186   
O347     O      0.545420000000     0.090330000000     0.924540000000    -0.609196   
O348     O      0.545430000000     0.090480000000     0.962270000000    -0.467934   
O349     O      0.998100000000     0.044300000000     0.922970000000    -0.472328   
O350     O      0.592410000000     0.044190000000     0.963450000000    -0.622424   
O351     O      0.998350000000     0.044260000000     0.963450000000    -0.620434   
O352     O      0.592660000000     0.044190000000     0.922980000000    -0.474171   
O353     O      0.738190000000     0.351320000000     0.661270000000    -0.355623   
O354     O      0.764690000000     0.326150000000     0.639220000000    -0.345033   
O355     O      0.854300000000     0.349620000000     0.725400000000    -0.349206   
O356     O      0.826710000000     0.325550000000     0.747420000000    -0.343956   
O357     O      0.852870000000     0.351080000000     0.661260000000    -0.351537   
O358     O      0.826170000000     0.326060000000     0.639220000000    -0.344242   
O359     O      0.736620000000     0.349740000000     0.725430000000    -0.344679   
O360     O      0.764100000000     0.325550000000     0.747440000000    -0.343744   
O361     O      0.757990000000     0.388210000000     0.694340000000    -0.340465   
O362     O      0.700300000000     0.342630000000     0.692740000000    -0.513294   
O363     O      0.831910000000     0.387710000000     0.693830000000    -0.513879   
O364     O      0.890810000000     0.343320000000     0.692860000000    -0.327519   
O365     O      0.795320000000     0.340480000000     0.674390000000    -0.468117   
O366     O      0.795330000000     0.340320000000     0.712120000000    -0.608886   
O367     O      0.736470000000     0.238870000000     0.725420000000    -0.349334   
O368     O      0.764060000000     0.262950000000     0.747430000000    -0.344035   
O369     O      0.852560000000     0.237130000000     0.661280000000    -0.355394   
O370     O      0.826050000000     0.262290000000     0.639220000000    -0.344758   
O371     O      0.854140000000     0.238750000000     0.725430000000    -0.344863   
O372     O      0.826680000000     0.262950000000     0.747450000000    -0.343905   
O373     O      0.737890000000     0.237370000000     0.661280000000    -0.351658   
O374     O      0.764570000000     0.262380000000     0.639240000000    -0.34446    
O375     O      0.758850000000     0.200760000000     0.693870000000    -0.513928   
O376     O      0.699950000000     0.245150000000     0.692880000000    -0.327657   
O377     O      0.832760000000     0.200260000000     0.694370000000    -0.340405   
O378     O      0.890450000000     0.245840000000     0.692740000000    -0.512956   
O379     O      0.795440000000     0.248150000000     0.712130000000    -0.609302   
O380     O      0.795440000000     0.247980000000     0.674400000000    -0.467915   
O381     O      0.748110000000     0.294170000000     0.713690000000    -0.474099   
O382     O      0.842400000000     0.294280000000     0.673200000000    -0.622785   
O383     O      0.748350000000     0.294180000000     0.673210000000    -0.62313    
O384     O      0.842670000000     0.294310000000     0.713690000000    -0.473929   
Zr61     Zr     0.502100000000     0.002610000000     0.943290000000     1.28477    
Zr62     Zr     0.588570000000     0.002510000000     0.943310000000     1.28563    
Zr63     Zr     0.502180000000     0.085960000000     0.943330000000     1.29116    
Zr64     Zr     0.588660000000     0.085860000000     0.943310000000     1.2908     
Zr65     Zr     0.545380000000     0.044220000000     0.978950000000     1.26414    
Zr66     Zr     0.545380000000     0.044250000000     0.907720000000     1.26139    
Zr67     Zr     0.752090000000     0.335850000000     0.693350000000     1.29075    
Zr68     Zr     0.838570000000     0.335980000000     0.693330000000     1.29129    
Zr69     Zr     0.752190000000     0.252500000000     0.693350000000     1.29133    
Zr70     Zr     0.838680000000     0.252620000000     0.693360000000     1.29082    
Zr71     Zr     0.795370000000     0.294230000000     0.657710000000     1.26557    
Zr72     Zr     0.795390000000     0.294240000000     0.728940000000     1.26223    
C961     C      0.995470000000     0.993280000000     0.492680000000     0.338615   
C962     C      0.596830000000     0.994870000000     0.393940000000     0.337029   
C963     C      0.595570000000     0.993520000000     0.492680000000     0.334907   
C964     C      0.994060000000     0.994780000000     0.393920000000     0.340813   
C965     C      0.993940000000     0.593650000000     0.393960000000     0.336359   
C966     C      0.595280000000     0.595150000000     0.492700000000     0.334357   
C967     C      0.596700000000     0.593740000000     0.393940000000     0.335313   
C968     C      0.995180000000     0.594910000000     0.492700000000     0.33486    
C969     C      0.745450000000     0.845140000000     0.143970000000     0.334404   
C970     C      0.846820000000     0.843650000000     0.242700000000     0.334281   
C971     C      0.845550000000     0.844930000000     0.143950000000     0.332362   
C972     C      0.744050000000     0.843720000000     0.242720000000     0.335395   
C973     C      0.743940000000     0.744850000000     0.242720000000     0.334311   
C974     C      0.845290000000     0.743300000000     0.143970000000     0.334148   
C975     C      0.846710000000     0.744780000000     0.242730000000     0.335454   
C976     C      0.745200000000     0.743510000000     0.143970000000     0.332648   
C977     C      0.610430000000     0.610740000000     0.008250000000    -0.0995268  
C978     C      0.603570000000     0.605110000000     0.027380000000     0.0205281  
C979     C      0.618050000000     0.619550000000     0.042010000000    -0.0688424  
C980     C      0.639750000000     0.639960000000     0.037910000000     0.028995   
C981     C      0.646560000000     0.645690000000     0.018810000000    -0.0696168  
C982     C      0.632080000000     0.631290000000     0.004170000000     0.0211075  
C983     C      0.655310000000     0.655130000000     0.053480000000    -0.000441854
C984     C      0.640200000000     0.665100000000     0.069540000000    -0.0375025  
C985     C      0.654850000000     0.679290000000     0.084210000000    -0.0378815  
C986     C      0.684950000000     0.683830000000     0.083170000000    -2.91942e-05
C987     C      0.700060000000     0.673860000000     0.067100000000    -0.0378247  
C988     C      0.685410000000     0.659680000000     0.052440000000    -0.0375714  
C989     C      0.700520000000     0.698970000000     0.098750000000     0.0282473  
C990     C      0.693730000000     0.693190000000     0.117830000000    -0.0678734  
C991     C      0.708270000000     0.707520000000     0.132490000000     0.0179653  
C992     C      0.729950000000     0.728030000000     0.128420000000    -0.0990525  
C993     C      0.736770000000     0.733730000000     0.109300000000     0.0199041  
C994     C      0.722230000000     0.719370000000     0.094660000000    -0.0682426  
C995     C      0.728480000000     0.729620000000     0.258280000000    -0.0984248  
C996     C      0.706670000000     0.709240000000     0.254230000000     0.0186386  
C997     C      0.692390000000     0.694650000000     0.268880000000    -0.0676681  
C998     C      0.699570000000     0.700050000000     0.287960000000     0.0284632  
C999     C      0.721260000000     0.720480000000     0.292040000000    -0.0679017  
C1000    C      0.735540000000     0.735100000000     0.277400000000     0.0203303  
C1001    C      0.684550000000     0.684350000000     0.303540000000     0.000189312
C1002    C      0.654480000000     0.679510000000     0.302770000000    -0.0375971  
C1003    C      0.640380000000     0.664710000000     0.317400000000    -0.0374564  
C1004    C      0.656020000000     0.654390000000     0.333150000000    -8.94497e-05
C1005    C      0.686100000000     0.659240000000     0.333920000000    -0.0374582  
C1006    C      0.700200000000     0.674050000000     0.319280000000    -0.037752   
C1007    C      0.641020000000     0.638670000000     0.348730000000     0.0289948  
C1008    C      0.619290000000     0.618280000000     0.344630000000    -0.0681807  
C1009    C      0.605030000000     0.603630000000     0.359270000000     0.0205862  
C1010    C      0.612130000000     0.609030000000     0.378380000000    -0.0978694  
C1011    C      0.633960000000     0.629390000000     0.382450000000     0.0203886  
C1012    C      0.648220000000     0.644010000000     0.367800000000    -0.0683934  
C1013    C      0.610820000000     0.978050000000     0.008250000000    -0.0981144  
C1014    C      0.603980000000     0.983730000000     0.027370000000     0.0202477  
C1015    C      0.618510000000     0.969360000000     0.042010000000    -0.0682795  
C1016    C      0.640230000000     0.948980000000     0.037910000000     0.0286946  
C1017    C      0.647040000000     0.943200000000     0.018830000000    -0.0683874  
C1018    C      0.632500000000     0.957540000000     0.004170000000     0.0199501  
C1019    C      0.655800000000     0.933830000000     0.053500000000    -6.82434e-06
C1020    C      0.640690000000     0.923850000000     0.069560000000    -0.0377426  
C1021    C      0.655330000000     0.909670000000     0.084220000000    -0.0375546  
C1022    C      0.685430000000     0.905130000000     0.083180000000    -0.00028769 
C1023    C      0.700550000000     0.915120000000     0.067140000000    -0.0375437  
C1024    C      0.685900000000     0.929310000000     0.052460000000    -0.0377004  
C1025    C      0.700980000000     0.889960000000     0.098770000000     0.0288067  
C1026    C      0.694160000000     0.895680000000     0.117850000000    -0.0691216  
C1027    C      0.708640000000     0.881270000000     0.132500000000     0.0192471  
C1028    C      0.730310000000     0.860740000000     0.128420000000    -0.100476   
C1029    C      0.737170000000     0.855110000000     0.109290000000     0.0206282  
C1030    C      0.722700000000     0.869550000000     0.094660000000    -0.0687702  
C1031    C      0.860430000000     0.727690000000     0.128430000000    -0.100569   
C1032    C      0.853550000000     0.733280000000     0.109300000000     0.020732   
C1033    C      0.868020000000     0.718830000000     0.094670000000    -0.0689424  
C1034    C      0.889750000000     0.698460000000     0.098780000000     0.028857   
C1035    C      0.896590000000     0.692760000000     0.117870000000    -0.0691395  
C1036    C      0.882110000000     0.707180000000     0.132510000000     0.0193713  
C1037    C      0.905310000000     0.683270000000     0.083210000000    -0.000310928
C1038    C      0.890190000000     0.673260000000     0.067170000000    -0.0375489  
C1039    C      0.904830000000     0.659070000000     0.052500000000    -0.0376264  
C1040    C      0.934940000000     0.654560000000     0.053530000000    -0.000224262
C1041    C      0.950050000000     0.664570000000     0.069570000000    -0.0376121  
C1042    C      0.935410000000     0.678770000000     0.084240000000    -0.0376245  
C1043    C      0.950510000000     0.639430000000     0.037940000000     0.0291142  
C1044    C      0.943680000000     0.645190000000     0.018860000000    -0.0687806  
C1045    C      0.958220000000     0.630850000000     0.004190000000     0.0204287  
C1046    C      0.979930000000     0.610380000000     0.008260000000    -0.0990918  
C1047    C      0.986780000000     0.604700000000     0.027380000000     0.0226328  
C1048    C      0.972260000000     0.619060000000     0.042030000000    -0.0692418  
C1049    C      0.862290000000     0.858890000000     0.258270000000    -0.098186   
C1050    C      0.855230000000     0.853450000000     0.277380000000     0.0203011  
C1051    C      0.869500000000     0.868070000000     0.292020000000    -0.0681576  
C1052    C      0.891210000000     0.888480000000     0.287930000000     0.028489   
C1053    C      0.898390000000     0.893860000000     0.268860000000    -0.0675348  
C1054    C      0.884110000000     0.879270000000     0.254200000000     0.0184309  
C1055    C      0.906210000000     0.904190000000     0.303500000000     8.94549e-05
C1056    C      0.890570000000     0.914540000000     0.319240000000    -0.037722   
C1057    C      0.904660000000     0.929350000000     0.333870000000    -0.0373131  
C1058    C      0.934740000000     0.934170000000     0.333110000000    -0.000557788
C1059    C      0.950390000000     0.923820000000     0.317380000000    -0.0372508  
C1060    C      0.936290000000     0.909020000000     0.302740000000    -0.0376601  
C1061    C      0.949750000000     0.949880000000     0.348690000000     0.030459   
C1062    C      0.942520000000     0.944550000000     0.367760000000    -0.0695496  
C1063    C      0.956780000000     0.959160000000     0.382420000000     0.022193   
C1064    C      0.978640000000     0.979490000000     0.378350000000    -0.100865   
C1065    C      0.985750000000     0.984890000000     0.359240000000     0.0273237  
C1066    C      0.971490000000     0.970250000000     0.344600000000    -0.0708499  
C1067    C      0.978460000000     0.608900000000     0.378400000000    -0.099372   
C1068    C      0.985630000000     0.603570000000     0.359290000000     0.0231689  
C1069    C      0.971340000000     0.618190000000     0.344650000000    -0.0691501  
C1070    C      0.949530000000     0.638500000000     0.348750000000     0.0291115  
C1071    C      0.942270000000     0.643770000000     0.367820000000    -0.0680358  
C1072    C      0.956540000000     0.629160000000     0.382470000000     0.0191328  
C1073    C      0.934510000000     0.654210000000     0.333170000000    -0.000121669
C1074    C      0.926330000000     0.639690000000     0.316470000000    -0.0374975  
C1075    C      0.912280000000     0.654480000000     0.301820000000    -0.0375129  
C1076    C      0.906070000000     0.684150000000     0.303510000000    -9.85433e-05
C1077    C      0.914240000000     0.698680000000     0.320220000000    -0.0376086  
C1078    C      0.928300000000     0.683880000000     0.334880000000    -0.0375083  
C1079    C      0.891040000000     0.699860000000     0.287950000000     0.0288391  
C1080    C      0.898360000000     0.694640000000     0.268870000000    -0.0683557  
C1081    C      0.884110000000     0.709270000000     0.254220000000     0.0203738  
C1082    C      0.862150000000     0.729480000000     0.258290000000    -0.0977461  
C1083    C      0.854930000000     0.734770000000     0.277410000000     0.0203495  
C1084    C      0.869210000000     0.720140000000     0.292040000000    -0.0680967  
C1085    C      0.612300000000     0.979630000000     0.378380000000    -0.0998665  
C1086    C      0.605200000000     0.985060000000     0.359260000000     0.0241202  
C1087    C      0.619470000000     0.970430000000     0.344620000000    -0.069482   
C1088    C      0.641210000000     0.950070000000     0.348700000000     0.0293382  
C1089    C      0.648440000000     0.944720000000     0.367780000000    -0.0681976  
C1090    C      0.634160000000     0.959300000000     0.382440000000     0.0194558  
C1091    C      0.656220000000     0.934360000000     0.333130000000    -0.000117968
C1092    C      0.640570000000     0.923980000000     0.317410000000    -0.0375269  
C1093    C      0.654660000000     0.909160000000     0.302780000000    -0.0374611  
C1094    C      0.684750000000     0.904380000000     0.303510000000    -8.75895e-05
C1095    C      0.700400000000     0.914780000000     0.319230000000    -0.0373921  
C1096    C      0.686310000000     0.929580000000     0.333870000000    -0.0374674  
C1097    C      0.699750000000     0.888660000000     0.287950000000     0.0289277  
C1098    C      0.692490000000     0.893940000000     0.268870000000    -0.0683435  
C1099    C      0.706750000000     0.879310000000     0.254220000000     0.0204192  
C1100    C      0.728640000000     0.859020000000     0.258280000000    -0.0979167  
C1101    C      0.735790000000     0.853670000000     0.277400000000     0.020532   
C1102    C      0.721530000000     0.868310000000     0.292030000000    -0.0682013  
C1103    C      0.980320000000     0.977670000000     0.008220000000    -0.1011     
C1104    C      0.958690000000     0.957120000000     0.004130000000     0.0221718  
C1105    C      0.944210000000     0.942700000000     0.018780000000    -0.070059   
C1106    C      0.951000000000     0.948440000000     0.037870000000     0.0298514  
C1107    C      0.972690000000     0.968870000000     0.041980000000    -0.0698582  
C1108    C      0.987160000000     0.983320000000     0.027350000000     0.0239003  
C1109    C      0.935450000000     0.933260000000     0.053440000000    -0.000547636
C1110    C      0.905350000000     0.928690000000     0.052390000000    -0.0373276  
C1111    C      0.890700000000     0.914510000000     0.067060000000    -0.0377728  
C1112    C      0.905800000000     0.904560000000     0.083130000000     6.92004e-05
C1113    C      0.935900000000     0.909130000000     0.084170000000    -0.0376739  
C1114    C      0.950550000000     0.923310000000     0.069510000000    -0.0372825  
C1115    C      0.890230000000     0.889440000000     0.098710000000     0.0282725  
C1116    C      0.868520000000     0.869030000000     0.094630000000    -0.0681031  
C1117    C      0.853990000000     0.854670000000     0.109270000000     0.0198302  
C1118    C      0.860810000000     0.860390000000     0.128400000000    -0.0988836  
C1119    C      0.882470000000     0.880920000000     0.132460000000     0.0180502  
C1120    C      0.897010000000     0.895250000000     0.117800000000    -0.0678063  
H769     H      0.545340000000     0.981420000000     0.416300000000     0.209545   
H770     H      0.609180000000     0.544220000000     0.471680000000     0.204109   
H771     H      0.545430000000     0.607070000000     0.416330000000     0.209859   
H772     H      0.981570000000     0.544230000000     0.471680000000     0.20358    
H773     H      0.648940000000     0.514890000000     0.445260000000     0.125224   
H774     H      0.653130000000     0.576130000000     0.445140000000     0.185506   
H775     H      0.572640000000     0.643200000000     0.454300000000     0.148013   
H776     H      0.508140000000     0.648110000000     0.430930000000     0.199158   
H777     H      0.941820000000     0.573590000000     0.445260000000     0.12554    
H778     H      0.937630000000     0.512340000000     0.445140000000     0.185333   
H779     H      0.518110000000     0.945270000000     0.454260000000     0.148105   
H780     H      0.582630000000     0.940380000000     0.430890000000     0.199447   
H781     H      0.512450000000     0.648040000000     0.454520000000     0.20278    
H782     H      0.942260000000     0.976550000000     0.443000000000     0.202274   
H783     H      0.578300000000     0.940430000000     0.454480000000     0.2028     
H784     H      0.648500000000     0.611920000000     0.443040000000     0.202541   
H785     H      0.795320000000     0.857060000000     0.220340000000     0.20961    
H786     H      0.859180000000     0.794250000000     0.164980000000     0.203875   
H787     H      0.795450000000     0.731420000000     0.220350000000     0.209784   
H788     H      0.731580000000     0.794210000000     0.164980000000     0.203865   
H789     H      0.898940000000     0.823620000000     0.191370000000     0.125447   
H790     H      0.903140000000     0.762380000000     0.191510000000     0.185373   
H791     H      0.822670000000     0.695270000000     0.182400000000     0.148181   
H792     H      0.758170000000     0.690370000000     0.205770000000     0.199477   
H793     H      0.691820000000     0.764850000000     0.191400000000     0.125357   
H794     H      0.687620000000     0.826090000000     0.191520000000     0.185482   
H795     H      0.768090000000     0.893190000000     0.182370000000     0.148236   
H796     H      0.832590000000     0.898110000000     0.205730000000     0.199914   
H797     H      0.762490000000     0.690420000000     0.182180000000     0.202841   
H798     H      0.692240000000     0.861880000000     0.193650000000     0.20277    
H799     H      0.828270000000     0.898040000000     0.182150000000     0.203216   
H800     H      0.898530000000     0.726590000000     0.193650000000     0.202581   
H801     H      0.587090000000     0.589420000000     0.031120000000     0.0373935  
H802     H      0.612520000000     0.614370000000     0.056560000000     0.0459679  
H803     H      0.662910000000     0.661580000000     0.015170000000     0.0458472  
H804     H      0.637940000000     0.636300000000     0.489640000000     0.03249    
H805     H      0.616940000000     0.662330000000     0.070650000000     0.0376231  
H806     H      0.642500000000     0.687100000000     0.096240000000     0.0377822  
H807     H      0.723320000000     0.676630000000     0.065990000000     0.0376361  
H808     H      0.697760000000     0.651860000000     0.040410000000     0.0373758  
H809     H      0.677380000000     0.677310000000     0.121470000000     0.0459934  
H810     H      0.702450000000     0.702460000000     0.147020000000     0.0369627  
H811     H      0.753270000000     0.749400000000     0.105560000000     0.0372463  
H812     H      0.727740000000     0.724580000000     0.080100000000     0.0457883  
H813     H      0.700670000000     0.704340000000     0.239710000000     0.0371812  
H814     H      0.676020000000     0.678790000000     0.265250000000     0.0462422  
H815     H      0.727030000000     0.725430000000     0.306600000000     0.0460816  
H816     H      0.752120000000     0.750690000000     0.281130000000     0.0376269  
H817     H      0.641730000000     0.687560000000     0.290980000000     0.0383671  
H818     H      0.617130000000     0.661740000000     0.316520000000     0.0380353  
H819     H      0.698850000000     0.651190000000     0.345700000000     0.0379282  
H820     H      0.723450000000     0.677020000000     0.320170000000     0.0379611  
H821     H      0.613500000000     0.613370000000     0.330080000000     0.0461985  
H822     H      0.588430000000     0.588060000000     0.355530000000     0.0375996  
H823     H      0.640010000000     0.634210000000     0.396970000000     0.0348615  
H824     H      0.664620000000     0.659840000000     0.371450000000     0.0459288  
H825     H      0.587470000000     0.999400000000     0.031100000000     0.0381496  
H826     H      0.612990000000     0.974570000000     0.056560000000     0.0461137  
H827     H      0.663400000000     0.927330000000     0.015200000000     0.0465389  
H828     H      0.638330000000     0.952490000000     0.489650000000     0.0370798  
H829     H      0.617430000000     0.926610000000     0.070670000000     0.0376878  
H830     H      0.642970000000     0.901840000000     0.096250000000     0.037305   
H831     H      0.723800000000     0.912360000000     0.066030000000     0.0378236  
H832     H      0.698260000000     0.937120000000     0.040430000000     0.0380517  
H833     H      0.677820000000     0.911550000000     0.121500000000     0.0456024  
H834     H      0.702780000000     0.886270000000     0.147020000000     0.0325914  
H835     H      0.753660000000     0.839440000000     0.105550000000     0.0370969  
H836     H      0.728230000000     0.864390000000     0.080100000000     0.0459791  
H837     H      0.837050000000     0.748950000000     0.105550000000     0.0370525  
H838     H      0.862470000000     0.723970000000     0.080120000000     0.0460582  
H839     H      0.912960000000     0.676900000000     0.121520000000     0.0455136  
H840     H      0.887990000000     0.702200000000     0.147050000000     0.0325219  
H841     H      0.866920000000     0.676000000000     0.066060000000     0.0376739  
H842     H      0.892470000000     0.651220000000     0.040470000000     0.0378378  
H843     H      0.973320000000     0.661830000000     0.070680000000     0.037814   
H844     H      0.947780000000     0.686610000000     0.096260000000     0.0374383  
H845     H      0.927310000000     0.661040000000     0.015220000000     0.0466505  
H846     H      0.952370000000     0.635900000000     0.489680000000     0.0369456  
H847     H      0.503310000000     0.589050000000     0.031120000000     0.037615   
H848     H      0.977790000000     0.613870000000     0.056590000000     0.0463655  
H849     H      0.838630000000     0.837870000000     0.281110000000     0.0375048  
H850     H      0.863720000000     0.863150000000     0.306570000000     0.0459042  
H851     H      0.914770000000     0.909710000000     0.265210000000     0.0463228  
H852     H      0.890120000000     0.884140000000     0.239680000000     0.03736    
H853     H      0.867300000000     0.911580000000     0.320110000000     0.0377007  
H854     H      0.891910000000     0.937410000000     0.345650000000     0.0378512  
H855     H      0.973640000000     0.926780000000     0.316500000000     0.0380252  
H856     H      0.949050000000     0.900950000000     0.290960000000     0.0384189  
H857     H      0.926120000000     0.928730000000     0.371400000000     0.0462803  
H858     H      0.950710000000     0.954340000000     0.396930000000     0.0346607  
H859     H      0.502380000000     0.500440000000     0.355510000000     0.0374595  
H860     H      0.977300000000     0.975150000000     0.330050000000     0.0473587  
H861     H      0.502430000000     0.588210000000     0.355560000000     0.0375669  
H862     H      0.977690000000     0.613890000000     0.330120000000     0.0465766  
H863     H      0.925300000000     0.659000000000     0.371450000000     0.0463904  
H864     H      0.950340000000     0.633810000000     0.396980000000     0.0373019  
H865     H      0.930400000000     0.616740000000     0.314830000000     0.03821    
H866     H      0.905860000000     0.642550000000     0.289250000000     0.037998   
H867     H      0.910170000000     0.721620000000     0.321870000000     0.0381812  
H868     H      0.934710000000     0.695810000000     0.347440000000     0.0378594  
H869     H      0.915350000000     0.679430000000     0.265260000000     0.0459506  
H870     H      0.890360000000     0.704660000000     0.239710000000     0.0348738  
H871     H      0.838110000000     0.750100000000     0.281130000000     0.037568   
H872     H      0.862820000000     0.724420000000     0.306570000000     0.046003   
H873     H      0.588570000000     0.500600000000     0.355530000000     0.0375883  
H874     H      0.613660000000     0.975340000000     0.330070000000     0.0468309  
H875     H      0.664850000000     0.928900000000     0.371410000000     0.0464045  
H876     H      0.640200000000     0.954470000000     0.396950000000     0.0371409  
H877     H      0.617300000000     0.926900000000     0.316550000000     0.0377136  
H878     H      0.641900000000     0.901060000000     0.291010000000     0.0378284  
H879     H      0.723670000000     0.911860000000     0.320100000000     0.0378381  
H880     H      0.699070000000     0.937680000000     0.345640000000     0.0383727  
H881     H      0.676050000000     0.909730000000     0.265230000000     0.0460101  
H882     H      0.700660000000     0.884100000000     0.239710000000     0.0349004  
H883     H      0.752430000000     0.838150000000     0.281140000000     0.0375242  
H884     H      0.727370000000     0.863460000000     0.306580000000     0.0460685  
H885     H      0.952850000000     0.952100000000     0.489610000000     0.0325418  
H886     H      0.927880000000     0.926800000000     0.015120000000     0.0461341  
H887     H      0.978190000000     0.974050000000     0.056540000000     0.0468643  
H888     H      0.503630000000     0.999010000000     0.031100000000     0.0379515  
H889     H      0.892990000000     0.936490000000     0.040350000000     0.037514   
H890     H      0.867440000000     0.911730000000     0.065940000000     0.0377725  
H891     H      0.948250000000     0.901330000000     0.096220000000     0.0379684  
H892     H      0.973810000000     0.926090000000     0.070630000000     0.037939   
H893     H      0.863020000000     0.863790000000     0.080070000000     0.0458055  
H894     H      0.837500000000     0.838980000000     0.105540000000     0.0373108  
H895     H      0.888280000000     0.886000000000     0.146990000000     0.0371204  
H896     H      0.913350000000     0.911130000000     0.121430000000     0.0462726  
O385     O      0.988210000000     0.987110000000     0.475370000000    -0.354218   
O386     O      0.514700000000     0.512280000000     0.497430000000    -0.344909   
O387     O      0.604300000000     0.988900000000     0.411240000000    -0.34879    
O388     O      0.576710000000     0.512970000000     0.389220000000    -0.343863   
O389     O      0.602890000000     0.987380000000     0.475380000000    -0.351008   
O390     O      0.576180000000     0.512380000000     0.497420000000    -0.344305   
O391     O      0.986630000000     0.988750000000     0.411220000000    -0.343897   
O392     O      0.514090000000     0.512960000000     0.389210000000    -0.343901   
O393     O      0.508030000000     0.950250000000     0.442280000000    -0.339604   
O394     O      0.950320000000     0.995800000000     0.443910000000    -0.508878   
O395     O      0.581940000000     0.950770000000     0.442790000000    -0.512671   
O396     O      0.640820000000     0.995180000000     0.443780000000    -0.324563   
O397     O      0.545340000000     0.997980000000     0.462260000000    -0.465612   
O398     O      0.545340000000     0.998160000000     0.424520000000    -0.606738   
O399     O      0.986460000000     0.599610000000     0.411260000000    -0.348825   
O400     O      0.514060000000     0.575560000000     0.389230000000    -0.343781   
O401     O      0.602540000000     0.601330000000     0.475400000000    -0.35554    
O402     O      0.576050000000     0.576150000000     0.497450000000    -0.344927   
O403     O      0.604130000000     0.599760000000     0.411240000000    -0.344731   
O404     O      0.576660000000     0.575560000000     0.389220000000    -0.343831   
O405     O      0.987870000000     0.601060000000     0.475400000000    -0.351294   
O406     O      0.514580000000     0.576050000000     0.497430000000    -0.344306   
O407     O      0.508820000000     0.637700000000     0.442830000000    -0.513256   
O408     O      0.949940000000     0.593290000000     0.443800000000    -0.327028   
O409     O      0.582730000000     0.638210000000     0.442320000000    -0.34036    
O410     O      0.640440000000     0.592660000000     0.443930000000    -0.513203   
O411     O      0.545420000000     0.590330000000     0.424540000000    -0.609401   
O412     O      0.545430000000     0.590480000000     0.462270000000    -0.468036   
O413     O      0.998100000000     0.544300000000     0.422970000000    -0.472332   
O414     O      0.592410000000     0.544190000000     0.463460000000    -0.62302    
O415     O      0.998350000000     0.544260000000     0.463450000000    -0.620807   
O416     O      0.592660000000     0.544190000000     0.422970000000    -0.474149   
O417     O      0.738190000000     0.851320000000     0.161270000000    -0.355598   
O418     O      0.764690000000     0.826150000000     0.139220000000    -0.345016   
O419     O      0.854300000000     0.849620000000     0.225400000000    -0.349364   
O420     O      0.826710000000     0.825560000000     0.247420000000    -0.344049   
O421     O      0.852870000000     0.851080000000     0.161260000000    -0.351407   
O422     O      0.826170000000     0.826060000000     0.139220000000    -0.344221   
O423     O      0.736620000000     0.849730000000     0.225420000000    -0.344784   
O424     O      0.764100000000     0.825550000000     0.247440000000    -0.343767   
O425     O      0.757990000000     0.888210000000     0.194340000000    -0.340354   
O426     O      0.700300000000     0.842630000000     0.192740000000    -0.513271   
O427     O      0.831910000000     0.887710000000     0.193840000000    -0.514087   
O428     O      0.890810000000     0.843320000000     0.192850000000    -0.3275     
O429     O      0.795320000000     0.840480000000     0.174390000000    -0.468047   
O430     O      0.795330000000     0.840320000000     0.212120000000    -0.609191   
O431     O      0.736470000000     0.738880000000     0.225420000000    -0.349371   
O432     O      0.764060000000     0.762950000000     0.247430000000    -0.343964   
O433     O      0.852560000000     0.737130000000     0.161280000000    -0.355505   
O434     O      0.826050000000     0.762290000000     0.139220000000    -0.344856   
O435     O      0.854140000000     0.738750000000     0.225430000000    -0.344726   
O436     O      0.826680000000     0.762950000000     0.247450000000    -0.343983   
O437     O      0.737890000000     0.737370000000     0.161280000000    -0.351637   
O438     O      0.764570000000     0.762380000000     0.139240000000    -0.344455   
O439     O      0.758850000000     0.700760000000     0.193870000000    -0.513527   
O440     O      0.699950000000     0.745150000000     0.192880000000    -0.327621   
O441     O      0.832760000000     0.700260000000     0.194370000000    -0.340497   
O442     O      0.890450000000     0.745840000000     0.192740000000    -0.513009   
O443     O      0.795440000000     0.748150000000     0.212130000000    -0.609218   
O444     O      0.795440000000     0.747970000000     0.174410000000    -0.467985   
O445     O      0.748110000000     0.794170000000     0.213690000000    -0.47409    
O446     O      0.842400000000     0.794280000000     0.173200000000    -0.622802   
O447     O      0.748350000000     0.794180000000     0.173210000000    -0.622907   
O448     O      0.842670000000     0.794310000000     0.213690000000    -0.473962   
Zr73     Zr     0.502100000000     0.502610000000     0.443290000000     1.2908     
Zr74     Zr     0.588570000000     0.502520000000     0.443310000000     1.29117    
Zr75     Zr     0.502180000000     0.585960000000     0.443330000000     1.29128    
Zr76     Zr     0.588660000000     0.585860000000     0.443310000000     1.29073    
Zr77     Zr     0.545380000000     0.544220000000     0.478950000000     1.26538    
Zr78     Zr     0.545380000000     0.544260000000     0.407720000000     1.26216    
Zr79     Zr     0.752090000000     0.835850000000     0.193350000000     1.29086    
Zr80     Zr     0.838570000000     0.835980000000     0.193340000000     1.29134    
Zr81     Zr     0.752190000000     0.752500000000     0.193350000000     1.29136    
Zr82     Zr     0.838680000000     0.752620000000     0.193350000000     1.29089    
Zr83     Zr     0.795370000000     0.794230000000     0.157710000000     1.26539    
Zr84     Zr     0.795390000000     0.794240000000     0.228940000000     1.26219    
C1121    C      0.995470000000     0.993280000000     0.992680000000     0.337542   
C1122    C      0.596830000000     0.994870000000     0.893940000000     0.337026   
C1123    C      0.595570000000     0.993520000000     0.992680000000     0.333522   
C1124    C      0.994060000000     0.994780000000     0.893920000000     0.34082    
C1125    C      0.993940000000     0.593650000000     0.893960000000     0.33637    
C1126    C      0.595280000000     0.595150000000     0.992700000000     0.333109   
C1127    C      0.596700000000     0.593740000000     0.893940000000     0.33531    
C1128    C      0.995180000000     0.594910000000     0.992700000000     0.333503   
C1129    C      0.745450000000     0.845140000000     0.643970000000     0.334409   
C1130    C      0.846820000000     0.843650000000     0.742700000000     0.334242   
C1131    C      0.845550000000     0.844930000000     0.643950000000     0.332322   
C1132    C      0.744050000000     0.843720000000     0.742730000000     0.335577   
C1133    C      0.743940000000     0.744850000000     0.742720000000     0.334306   
C1134    C      0.845290000000     0.743300000000     0.643970000000     0.33412    
C1135    C      0.846710000000     0.744780000000     0.742730000000     0.33549    
C1136    C      0.745200000000     0.743510000000     0.643970000000     0.332656   
C1137    C      0.610430000000     0.610740000000     0.508250000000    -0.100514   
C1138    C      0.603570000000     0.605110000000     0.527380000000     0.0206115  
C1139    C      0.618050000000     0.619550000000     0.542010000000    -0.0688757  
C1140    C      0.639750000000     0.639960000000     0.537910000000     0.0287447  
C1141    C      0.646560000000     0.645690000000     0.518820000000    -0.0690508  
C1142    C      0.632080000000     0.631290000000     0.504170000000     0.0192     
C1143    C      0.655310000000     0.655130000000     0.553480000000    -0.000420329
C1144    C      0.640200000000     0.665100000000     0.569540000000    -0.0375655  
C1145    C      0.654850000000     0.679290000000     0.584210000000    -0.037859   
C1146    C      0.684950000000     0.683830000000     0.583160000000    -3.16863e-05
C1147    C      0.700060000000     0.673860000000     0.567100000000    -0.0378734  
C1148    C      0.685410000000     0.659680000000     0.552440000000    -0.0376377  
C1149    C      0.700520000000     0.698970000000     0.598750000000     0.0281903  
C1150    C      0.693730000000     0.693190000000     0.617840000000    -0.0678944  
C1151    C      0.708270000000     0.707520000000     0.632490000000     0.0180067  
C1152    C      0.729950000000     0.728030000000     0.628420000000    -0.0990693  
C1153    C      0.736770000000     0.733730000000     0.609300000000     0.0198889  
C1154    C      0.722230000000     0.719370000000     0.594660000000    -0.068239   
C1155    C      0.728480000000     0.729620000000     0.758280000000    -0.0983998  
C1156    C      0.706670000000     0.709240000000     0.754230000000     0.0185911  
C1157    C      0.692390000000     0.694650000000     0.768890000000    -0.0676307  
C1158    C      0.699570000000     0.700050000000     0.787960000000     0.028479   
C1159    C      0.721260000000     0.720480000000     0.792040000000    -0.0679034  
C1160    C      0.735540000000     0.735100000000     0.777400000000     0.0203227  
C1161    C      0.684550000000     0.684350000000     0.803540000000     0.000208053
C1162    C      0.654480000000     0.679510000000     0.802770000000    -0.0376713  
C1163    C      0.640380000000     0.664710000000     0.817400000000    -0.0374087  
C1164    C      0.656020000000     0.654390000000     0.833150000000    -0.000150988
C1165    C      0.686100000000     0.659240000000     0.833920000000    -0.0373632  
C1166    C      0.700200000000     0.674050000000     0.819290000000    -0.0378     
C1167    C      0.641020000000     0.638670000000     0.848730000000     0.029011   
C1168    C      0.619290000000     0.618280000000     0.844630000000    -0.0681942  
C1169    C      0.605030000000     0.603630000000     0.859270000000     0.0205918  
C1170    C      0.612130000000     0.609030000000     0.878380000000    -0.0978901  
C1171    C      0.633960000000     0.629390000000     0.882450000000     0.0203768  
C1172    C      0.648220000000     0.644010000000     0.867800000000    -0.0684248  
C1173    C      0.610820000000     0.978050000000     0.508250000000    -0.0991493  
C1174    C      0.603980000000     0.983730000000     0.527370000000     0.0203436  
C1175    C      0.618510000000     0.969360000000     0.542010000000    -0.068278   
C1176    C      0.640230000000     0.948980000000     0.537920000000     0.0283523  
C1177    C      0.647040000000     0.943200000000     0.518830000000    -0.0677834  
C1178    C      0.632500000000     0.957540000000     0.504170000000     0.0181112  
C1179    C      0.655800000000     0.933830000000     0.553510000000     7.83563e-05
C1180    C      0.640690000000     0.923850000000     0.569560000000    -0.0378306  
C1181    C      0.655330000000     0.909670000000     0.584220000000    -0.0375497  
C1182    C      0.685430000000     0.905130000000     0.583180000000    -0.000319377
C1183    C      0.700550000000     0.915120000000     0.567140000000    -0.037561   
C1184    C      0.685900000000     0.929310000000     0.552460000000    -0.0377999  
C1185    C      0.700980000000     0.889960000000     0.598760000000     0.0287566  
C1186    C      0.694160000000     0.895680000000     0.617850000000    -0.069098   
C1187    C      0.708640000000     0.881270000000     0.632500000000     0.01927    
C1188    C      0.730310000000     0.860740000000     0.628420000000    -0.100489   
C1189    C      0.737170000000     0.855110000000     0.609290000000     0.0206126  
C1190    C      0.722700000000     0.869550000000     0.594660000000    -0.068767   
C1191    C      0.860430000000     0.727690000000     0.628430000000    -0.100589   
C1192    C      0.853550000000     0.733280000000     0.609310000000     0.0207456  
C1193    C      0.868020000000     0.718830000000     0.594670000000    -0.0689604  
C1194    C      0.889750000000     0.698460000000     0.598780000000     0.0288477  
C1195    C      0.896590000000     0.692760000000     0.617870000000    -0.0691449  
C1196    C      0.882110000000     0.707180000000     0.632510000000     0.0193765  
C1197    C      0.905310000000     0.683270000000     0.583210000000    -0.00034914 
C1198    C      0.890190000000     0.673260000000     0.567170000000    -0.0375522  
C1199    C      0.904830000000     0.659070000000     0.552500000000    -0.0377608  
C1200    C      0.934940000000     0.654560000000     0.553530000000    -0.000190948
C1201    C      0.950050000000     0.664570000000     0.569570000000    -0.0376723  
C1202    C      0.935410000000     0.678770000000     0.584240000000    -0.0376263  
C1203    C      0.950510000000     0.639430000000     0.537940000000     0.0288918  
C1204    C      0.943680000000     0.645190000000     0.518850000000    -0.0683612  
C1205    C      0.958220000000     0.630850000000     0.504200000000     0.0187453  
C1206    C      0.979930000000     0.610380000000     0.508270000000    -0.100175   
C1207    C      0.986780000000     0.604700000000     0.527380000000     0.0228958  
C1208    C      0.972260000000     0.619060000000     0.542030000000    -0.0694291  
C1209    C      0.862290000000     0.858890000000     0.758270000000    -0.0981586  
C1210    C      0.855230000000     0.853450000000     0.777380000000     0.0202922  
C1211    C      0.869500000000     0.868070000000     0.792020000000    -0.0681482  
C1212    C      0.891210000000     0.888480000000     0.787930000000     0.028487   
C1213    C      0.898390000000     0.893860000000     0.768860000000    -0.0675207  
C1214    C      0.884110000000     0.879270000000     0.754200000000     0.0184278  
C1215    C      0.906210000000     0.904190000000     0.803500000000     9.50232e-05
C1216    C      0.890570000000     0.914540000000     0.819240000000    -0.0377257  
C1217    C      0.904660000000     0.929350000000     0.833870000000    -0.0373202  
C1218    C      0.934740000000     0.934170000000     0.833110000000    -0.000569075
C1219    C      0.950390000000     0.923820000000     0.817380000000    -0.0372465  
C1220    C      0.936290000000     0.909020000000     0.802740000000    -0.0376623  
C1221    C      0.949750000000     0.949880000000     0.848690000000     0.0304671  
C1222    C      0.942520000000     0.944550000000     0.867760000000    -0.0695942  
C1223    C      0.956780000000     0.959160000000     0.882420000000     0.0222251  
C1224    C      0.978640000000     0.979490000000     0.878350000000    -0.100907   
C1225    C      0.985750000000     0.984890000000     0.859240000000     0.027349   
C1226    C      0.971490000000     0.970250000000     0.844600000000    -0.0708669  
C1227    C      0.978460000000     0.608900000000     0.878400000000    -0.0994241  
C1228    C      0.985630000000     0.603570000000     0.859290000000     0.023218   
C1229    C      0.971340000000     0.618190000000     0.844650000000    -0.0691869  
C1230    C      0.949530000000     0.638500000000     0.848750000000     0.0291409  
C1231    C      0.942270000000     0.643770000000     0.867820000000    -0.0680935  
C1232    C      0.956540000000     0.629160000000     0.882470000000     0.0191756  
C1233    C      0.934510000000     0.654210000000     0.833170000000    -0.000168462
C1234    C      0.926330000000     0.639690000000     0.816470000000    -0.037429   
C1235    C      0.912280000000     0.654480000000     0.801820000000    -0.0376303  
C1236    C      0.906070000000     0.684150000000     0.803520000000    -7.4992e-06 
C1237    C      0.914240000000     0.698680000000     0.820220000000    -0.0376691  
C1238    C      0.928300000000     0.683880000000     0.834880000000    -0.0374785  
C1239    C      0.891040000000     0.699860000000     0.787950000000     0.0287921  
C1240    C      0.898360000000     0.694640000000     0.768870000000    -0.0683137  
C1241    C      0.884110000000     0.709270000000     0.754220000000     0.0203314  
C1242    C      0.862150000000     0.729480000000     0.758290000000    -0.0977297  
C1243    C      0.854930000000     0.734770000000     0.777410000000     0.0203357  
C1244    C      0.869210000000     0.720140000000     0.792040000000    -0.0680714  
C1245    C      0.612300000000     0.979630000000     0.878380000000    -0.0998699  
C1246    C      0.605200000000     0.985060000000     0.859260000000     0.0241289  
C1247    C      0.619470000000     0.970430000000     0.844620000000    -0.0694996  
C1248    C      0.641210000000     0.950070000000     0.848700000000     0.0293709  
C1249    C      0.648440000000     0.944720000000     0.867770000000    -0.068198   
C1250    C      0.634160000000     0.959300000000     0.882440000000     0.0193961  
C1251    C      0.656220000000     0.934360000000     0.833130000000    -0.000144821
C1252    C      0.640570000000     0.923980000000     0.817410000000    -0.0375026  
C1253    C      0.654660000000     0.909160000000     0.802780000000    -0.0374909  
C1254    C      0.684750000000     0.904380000000     0.803520000000    -4.99962e-05
C1255    C      0.700400000000     0.914780000000     0.819230000000    -0.0374252  
C1256    C      0.686310000000     0.929580000000     0.833870000000    -0.037455   
C1257    C      0.699750000000     0.888660000000     0.787950000000     0.0289401  
C1258    C      0.692490000000     0.893940000000     0.768870000000    -0.0683782  
C1259    C      0.706750000000     0.879310000000     0.754220000000     0.0205293  
C1260    C      0.728640000000     0.859020000000     0.758280000000    -0.09811    
C1261    C      0.735790000000     0.853670000000     0.777400000000     0.0206103  
C1262    C      0.721530000000     0.868310000000     0.792030000000    -0.0682316  
C1263    C      0.980320000000     0.977670000000     0.508220000000    -0.102039   
C1264    C      0.958690000000     0.957120000000     0.504130000000     0.0203254  
C1265    C      0.944210000000     0.942700000000     0.518780000000    -0.0695384  
C1266    C      0.951000000000     0.948440000000     0.537870000000     0.029584   
C1267    C      0.972690000000     0.968870000000     0.541980000000    -0.0698892  
C1268    C      0.987160000000     0.983320000000     0.527350000000     0.0240222  
C1269    C      0.935450000000     0.933260000000     0.553440000000    -0.00052304 
C1270    C      0.905350000000     0.928690000000     0.552390000000    -0.0373975  
C1271    C      0.890700000000     0.914510000000     0.567060000000    -0.037805   
C1272    C      0.905800000000     0.904560000000     0.583130000000     5.12826e-05
C1273    C      0.935900000000     0.909130000000     0.584170000000    -0.0376841  
C1274    C      0.950550000000     0.923310000000     0.569510000000    -0.0373352  
C1275    C      0.890230000000     0.889440000000     0.598710000000     0.0282453  
C1276    C      0.868520000000     0.869030000000     0.594630000000    -0.0681286  
C1277    C      0.853990000000     0.854670000000     0.609280000000     0.0198754  
C1278    C      0.860810000000     0.860390000000     0.628390000000    -0.0988206  
C1279    C      0.882470000000     0.880920000000     0.632460000000     0.0179719  
C1280    C      0.897010000000     0.895250000000     0.617800000000    -0.0677534  
H897     H      0.545340000000     0.981420000000     0.916300000000     0.209524   
H898     H      0.609180000000     0.544220000000     0.971680000000     0.203713   
H899     H      0.545430000000     0.607070000000     0.916330000000     0.20984    
H900     H      0.981570000000     0.544230000000     0.971680000000     0.203418   
H901     H      0.648940000000     0.514890000000     0.945260000000     0.125135   
H902     H      0.653130000000     0.576130000000     0.945140000000     0.185359   
H903     H      0.572640000000     0.643200000000     0.954300000000     0.147852   
H904     H      0.508140000000     0.648110000000     0.930930000000     0.199056   
H905     H      0.941820000000     0.573590000000     0.945260000000     0.125434   
H906     H      0.937630000000     0.512340000000     0.945140000000     0.185173   
H907     H      0.518110000000     0.945270000000     0.954260000000     0.147936   
H908     H      0.582630000000     0.940380000000     0.930890000000     0.19909    
H909     H      0.512450000000     0.648040000000     0.954520000000     0.202562   
H910     H      0.942260000000     0.976550000000     0.943000000000     0.202104   
H911     H      0.578300000000     0.940430000000     0.954480000000     0.202835   
H912     H      0.648500000000     0.611920000000     0.943040000000     0.202373   
H913     H      0.795320000000     0.857060000000     0.720340000000     0.209603   
H914     H      0.859180000000     0.794250000000     0.664980000000     0.203874   
H915     H      0.795450000000     0.731420000000     0.720350000000     0.209795   
H916     H      0.731580000000     0.794210000000     0.664990000000     0.204103   
H917     H      0.898940000000     0.823620000000     0.691370000000     0.125423   
H918     H      0.903140000000     0.762380000000     0.691510000000     0.185376   
H919     H      0.822670000000     0.695270000000     0.682390000000     0.147974   
H920     H      0.758170000000     0.690370000000     0.705760000000     0.199832   
H921     H      0.691820000000     0.764850000000     0.691400000000     0.125353   
H922     H      0.687620000000     0.826090000000     0.691520000000     0.185491   
H923     H      0.768090000000     0.893190000000     0.682370000000     0.148238   
H924     H      0.832590000000     0.898110000000     0.705730000000     0.199675   
H925     H      0.762490000000     0.690420000000     0.682180000000     0.202954   
H926     H      0.692240000000     0.861880000000     0.693640000000     0.2028     
H927     H      0.828270000000     0.898040000000     0.682150000000     0.203464   
H928     H      0.898530000000     0.726590000000     0.693660000000     0.202565   
H929     H      0.587090000000     0.589420000000     0.531120000000     0.0370419  
H930     H      0.612520000000     0.614370000000     0.556560000000     0.045925   
H931     H      0.662910000000     0.661580000000     0.515170000000     0.0453673  
H932     H      0.637940000000     0.636300000000     0.989640000000     0.0310277  
H933     H      0.616940000000     0.662330000000     0.570660000000     0.0375868  
H934     H      0.642500000000     0.687100000000     0.596250000000     0.0377314  
H935     H      0.723320000000     0.676630000000     0.565990000000     0.0375652  
H936     H      0.697760000000     0.651860000000     0.540410000000     0.0372396  
H937     H      0.677380000000     0.677310000000     0.621470000000     0.0460038  
H938     H      0.702450000000     0.702460000000     0.647020000000     0.0369569  
H939     H      0.753270000000     0.749400000000     0.605560000000     0.0372187  
H940     H      0.727740000000     0.724580000000     0.580100000000     0.0457138  
H941     H      0.700670000000     0.704340000000     0.739710000000     0.0371988  
H942     H      0.676020000000     0.678790000000     0.765250000000     0.0462366  
H943     H      0.727030000000     0.725430000000     0.806600000000     0.046062   
H944     H      0.752120000000     0.750690000000     0.781130000000     0.0376231  
H945     H      0.641730000000     0.687560000000     0.790990000000     0.0384124  
H946     H      0.617130000000     0.661740000000     0.816520000000     0.0380231  
H947     H      0.698850000000     0.651190000000     0.845710000000     0.0378502  
H948     H      0.723450000000     0.677020000000     0.820170000000     0.0379556  
H949     H      0.613500000000     0.613370000000     0.830080000000     0.0462101  
H950     H      0.588430000000     0.588060000000     0.855530000000     0.0376019  
H951     H      0.640010000000     0.634210000000     0.896970000000     0.0347944  
H952     H      0.664620000000     0.659840000000     0.871450000000     0.0458739  
H953     H      0.587470000000     0.999400000000     0.531100000000     0.0377969  
H954     H      0.612990000000     0.974570000000     0.556560000000     0.0460665  
H955     H      0.663400000000     0.927330000000     0.515190000000     0.046055   
H956     H      0.638330000000     0.952490000000     0.989650000000     0.035644   
H957     H      0.617430000000     0.926610000000     0.570670000000     0.0376625  
H958     H      0.642970000000     0.901840000000     0.596250000000     0.0372829  
H959     H      0.723800000000     0.912360000000     0.566030000000     0.0377484  
H960     H      0.698260000000     0.937120000000     0.540430000000     0.0379324  
H961     H      0.677820000000     0.911550000000     0.621500000000     0.0455972  
H962     H      0.702780000000     0.886270000000     0.647030000000     0.032584   
H963     H      0.753660000000     0.839440000000     0.605550000000     0.037069   
H964     H      0.728230000000     0.864390000000     0.580100000000     0.0459051  
H965     H      0.837050000000     0.748950000000     0.605560000000     0.0370272  
H966     H      0.862470000000     0.723970000000     0.580120000000     0.0459915  
H967     H      0.912960000000     0.676900000000     0.621520000000     0.0455166  
H968     H      0.887990000000     0.702200000000     0.647050000000     0.0325319  
H969     H      0.866920000000     0.676000000000     0.566060000000     0.0375905  
H970     H      0.892470000000     0.651220000000     0.540480000000     0.0377388  
H971     H      0.973320000000     0.661830000000     0.570680000000     0.0377846  
H972     H      0.947780000000     0.686610000000     0.596260000000     0.0374199  
H973     H      0.927310000000     0.661040000000     0.515220000000     0.0462309  
H974     H      0.952370000000     0.635900000000     0.989680000000     0.0355454  
H975     H      0.503310000000     0.589050000000     0.531120000000     0.0372172  
H976     H      0.977790000000     0.613870000000     0.556580000000     0.0464019  
H977     H      0.838630000000     0.837870000000     0.781110000000     0.0375032  
H978     H      0.863720000000     0.863150000000     0.806570000000     0.0458841  
H979     H      0.914770000000     0.909710000000     0.765210000000     0.0463353  
H980     H      0.890120000000     0.884140000000     0.739680000000     0.0373802  
H981     H      0.867300000000     0.911580000000     0.820120000000     0.0376811  
H982     H      0.891910000000     0.937410000000     0.845650000000     0.0378174  
H983     H      0.973640000000     0.926780000000     0.816500000000     0.0380274  
H984     H      0.949050000000     0.900950000000     0.790960000000     0.0384282  
H985     H      0.926120000000     0.928730000000     0.871400000000     0.0462301  
H986     H      0.950710000000     0.954340000000     0.896940000000     0.0345846  
H987     H      0.502380000000     0.500440000000     0.855510000000     0.0374607  
H988     H      0.977300000000     0.975150000000     0.830050000000     0.0473735  
H989     H      0.502430000000     0.588210000000     0.855550000000     0.0375477  
H990     H      0.977690000000     0.613890000000     0.830120000000     0.046594   
H991     H      0.925300000000     0.659000000000     0.871450000000     0.0463432  
H992     H      0.950340000000     0.633810000000     0.896990000000     0.0372202  
H993     H      0.930400000000     0.616740000000     0.814820000000     0.0381906  
H994     H      0.905860000000     0.642550000000     0.789260000000     0.0380547  
H995     H      0.910170000000     0.721620000000     0.821870000000     0.0381751  
H996     H      0.934710000000     0.695810000000     0.847440000000     0.0378133  
H997     H      0.915350000000     0.679430000000     0.765260000000     0.0459521  
H998     H      0.890360000000     0.704660000000     0.739720000000     0.0348887  
H999     H      0.838110000000     0.750100000000     0.781130000000     0.0375657  
H1000    H      0.862820000000     0.724420000000     0.806570000000     0.0459766  
H1001    H      0.588570000000     0.500600000000     0.855530000000     0.0375922  
H1002    H      0.613660000000     0.975340000000     0.830070000000     0.0468455  
H1003    H      0.664850000000     0.928900000000     0.871410000000     0.0463343  
H1004    H      0.640200000000     0.954470000000     0.896950000000     0.0370833  
H1005    H      0.617300000000     0.926900000000     0.816540000000     0.0377064  
H1006    H      0.641900000000     0.901060000000     0.791010000000     0.0378413  
H1007    H      0.723670000000     0.911860000000     0.820100000000     0.0378284  
H1008    H      0.699070000000     0.937680000000     0.845640000000     0.0383357  
H1009    H      0.676050000000     0.909730000000     0.765230000000     0.046032   
H1010    H      0.700660000000     0.884100000000     0.739710000000     0.0348908  
H1011    H      0.752430000000     0.838150000000     0.781140000000     0.0374933  
H1012    H      0.727370000000     0.863460000000     0.806580000000     0.0460563  
H1013    H      0.952850000000     0.952100000000     0.989600000000     0.0311145  
H1014    H      0.927880000000     0.926800000000     0.515130000000     0.0456956  
H1015    H      0.978190000000     0.974050000000     0.556540000000     0.046834   
H1016    H      0.503630000000     0.999010000000     0.531100000000     0.0376089  
H1017    H      0.892990000000     0.936490000000     0.540350000000     0.0373833  
H1018    H      0.867440000000     0.911730000000     0.565940000000     0.0377009  
H1019    H      0.948250000000     0.901330000000     0.596220000000     0.0379546  
H1020    H      0.973810000000     0.926090000000     0.570630000000     0.0379099  
H1021    H      0.863020000000     0.863790000000     0.580070000000     0.0457396  
H1022    H      0.837500000000     0.838980000000     0.605540000000     0.0372628  
H1023    H      0.888280000000     0.886000000000     0.646990000000     0.0371352  
H1024    H      0.913350000000     0.911130000000     0.621440000000     0.0462515  
O449     O      0.988210000000     0.987110000000     0.975380000000    -0.35428    
O450     O      0.514700000000     0.512280000000     0.997430000000    -0.345232   
O451     O      0.604300000000     0.988900000000     0.911240000000    -0.348829   
O452     O      0.576710000000     0.512970000000     0.889220000000    -0.343874   
O453     O      0.602890000000     0.987380000000     0.975380000000    -0.350955   
O454     O      0.576180000000     0.512380000000     0.997420000000    -0.344551   
O455     O      0.986630000000     0.988750000000     0.911220000000    -0.34392    
O456     O      0.514090000000     0.512960000000     0.889210000000    -0.343899   
O457     O      0.508030000000     0.950250000000     0.942280000000    -0.339693   
O458     O      0.950320000000     0.995800000000     0.943910000000    -0.508881   
O459     O      0.581940000000     0.950770000000     0.942800000000    -0.512665   
O460     O      0.640820000000     0.995180000000     0.943780000000    -0.324722   
O461     O      0.545340000000     0.997980000000     0.962260000000    -0.465629   
O462     O      0.545340000000     0.998160000000     0.924520000000    -0.606714   
O463     O      0.986460000000     0.599610000000     0.911260000000    -0.348854   
O464     O      0.514060000000     0.575560000000     0.889230000000    -0.343779   
O465     O      0.602540000000     0.601330000000     0.975400000000    -0.35551    
O466     O      0.576050000000     0.576150000000     0.997440000000    -0.345305   
O467     O      0.604130000000     0.599760000000     0.911240000000    -0.344769   
O468     O      0.576660000000     0.575560000000     0.889220000000    -0.343842   
O469     O      0.987870000000     0.601060000000     0.975400000000    -0.351234   
O470     O      0.514580000000     0.576050000000     0.997430000000    -0.344547   
O471     O      0.508820000000     0.637700000000     0.942830000000    -0.513237   
O472     O      0.949940000000     0.593290000000     0.943800000000    -0.327181   
O473     O      0.582730000000     0.638210000000     0.942320000000    -0.340464   
O474     O      0.640440000000     0.592660000000     0.943930000000    -0.513206   
O475     O      0.545420000000     0.590330000000     0.924540000000    -0.609381   
O476     O      0.545430000000     0.590480000000     0.962270000000    -0.468038   
O477     O      0.998100000000     0.544300000000     0.922970000000    -0.472314   
O478     O      0.592410000000     0.544190000000     0.963450000000    -0.622788   
O479     O      0.998350000000     0.544260000000     0.963450000000    -0.620723   
O480     O      0.592660000000     0.544190000000     0.922980000000    -0.474241   
O481     O      0.738190000000     0.851320000000     0.661270000000    -0.355604   
O482     O      0.764690000000     0.826150000000     0.639220000000    -0.345024   
O483     O      0.854300000000     0.849620000000     0.725400000000    -0.349225   
O484     O      0.826710000000     0.825560000000     0.747420000000    -0.344025   
O485     O      0.852870000000     0.851080000000     0.661260000000    -0.351518   
O486     O      0.826170000000     0.826060000000     0.639220000000    -0.344233   
O487     O      0.736620000000     0.849730000000     0.725430000000    -0.344711   
O488     O      0.764100000000     0.825550000000     0.747440000000    -0.343842   
O489     O      0.757990000000     0.888210000000     0.694340000000    -0.340351   
O490     O      0.700300000000     0.842630000000     0.692740000000    -0.513311   
O491     O      0.831910000000     0.887710000000     0.693830000000    -0.514076   
O492     O      0.890810000000     0.843320000000     0.692860000000    -0.327461   
O493     O      0.795320000000     0.840480000000     0.674390000000    -0.468108   
O494     O      0.795330000000     0.840320000000     0.712120000000    -0.609117   
O495     O      0.736470000000     0.738880000000     0.725420000000    -0.349362   
O496     O      0.764060000000     0.762950000000     0.747430000000    -0.34396    
O497     O      0.852560000000     0.737130000000     0.661280000000    -0.355368   
O498     O      0.826050000000     0.762290000000     0.639220000000    -0.344841   
O499     O      0.854140000000     0.738750000000     0.725430000000    -0.344842   
O500     O      0.826680000000     0.762950000000     0.747450000000    -0.343999   
O501     O      0.737890000000     0.737370000000     0.661280000000    -0.351631   
O502     O      0.764570000000     0.762380000000     0.639240000000    -0.344451   
O503     O      0.758850000000     0.700760000000     0.693870000000    -0.513945   
O504     O      0.699950000000     0.745150000000     0.692880000000    -0.327609   
O505     O      0.832760000000     0.700260000000     0.694370000000    -0.340282   
O506     O      0.890450000000     0.745840000000     0.692740000000    -0.512967   
O507     O      0.795440000000     0.748150000000     0.712130000000    -0.609313   
O508     O      0.795440000000     0.747970000000     0.674400000000    -0.467816   
O509     O      0.748110000000     0.794170000000     0.713690000000    -0.474082   
O510     O      0.842400000000     0.794280000000     0.673200000000    -0.622801   
O511     O      0.748350000000     0.794180000000     0.673210000000    -0.623146   
O512     O      0.842670000000     0.794310000000     0.713690000000    -0.47395    
Zr85     Zr     0.502100000000     0.502610000000     0.943290000000     1.29063    
Zr86     Zr     0.588570000000     0.502520000000     0.943310000000     1.29128    
Zr87     Zr     0.502180000000     0.585960000000     0.943330000000     1.29118    
Zr88     Zr     0.588660000000     0.585860000000     0.943310000000     1.29086    
Zr89     Zr     0.545380000000     0.544220000000     0.978950000000     1.26501    
Zr90     Zr     0.545380000000     0.544260000000     0.907720000000     1.26217    
Zr91     Zr     0.752090000000     0.835850000000     0.693350000000     1.2908     
Zr92     Zr     0.838570000000     0.835980000000     0.693330000000     1.29135    
Zr93     Zr     0.752190000000     0.752500000000     0.693350000000     1.29135    
Zr94     Zr     0.838680000000     0.752620000000     0.693360000000     1.29079    
Zr95     Zr     0.795370000000     0.794230000000     0.657710000000     1.26546    
Zr96     Zr     0.795390000000     0.794240000000     0.728940000000     1.26221    


